version 3
run Training_PortScan-0-20260517-12:09:15-25500
attr configname Training_PortScan
attr datetime 20260517-12:09:15
attr datetimef 20260517-120915
attr experiment Training_PortScan
attr inifile configs/omnetpp.ini
attr iterationvars ""
attr iterationvarsd ""
attr iterationvarsf ""
attr measurement ""
attr network NetworkTopology
attr processid 25500
attr repetition 0
attr replication #0
attr resultdir results
attr runnumber 0
attr seedset 0
config description "Port scan training — 6 repeating cycles, 5 scan types, labels 1-5"
config *.numHostsPerLan 5
config *.dataExporter.scenarioName "\"training_portscan\""
config *.dataExporter.congestionLabel 0
config *.dataExporter.scanLabel 0
config *.scenarioManager.script "xmldoc(\"/home/opp_env/default_workspace/netsim/xml/scenario_portscan.xml\")"
config cmdenv-express-mode true
config sim-time-limit 7200s
config output-scalar-file results/Training_PortScan.sca
config output-vector-file results/Training_PortScan.vec
config *.isp_private0.private.attacker.numApps 5
config *.isp_private0.private.attacker.app[*].typename UdpBasicApp
config *.isp_private0.private.attacker.app[*].messageLength 40B
config *.isp_private0.private.attacker.app[0].destAddresses "\"cloud.webServer\""
config *.isp_private0.private.attacker.app[0].destPort 80
config *.isp_private0.private.attacker.app[0].sendInterval exponential(2ms)
config *.isp_private0.private.attacker.app[0].startTime 60s
config *.isp_private0.private.attacker.app[1].destAddresses "\"cloud.videoServer\""
config *.isp_private0.private.attacker.app[1].destPort 443
config *.isp_private0.private.attacker.app[1].sendInterval exponential(3ms)
config *.isp_private0.private.attacker.app[1].startTime 60s
config *.isp_private0.private.attacker.app[2].destAddresses "\"cloud.fileServer\""
config *.isp_private0.private.attacker.app[2].destPort 22
config *.isp_private0.private.attacker.app[2].sendInterval exponential(4ms)
config *.isp_private0.private.attacker.app[2].startTime 60s
config *.isp_private0.private.attacker.app[3].destAddresses "\"cloud.gameServer\""
config *.isp_private0.private.attacker.app[3].destPort 3306
config *.isp_private0.private.attacker.app[3].sendInterval exponential(5ms)
config *.isp_private0.private.attacker.app[3].startTime 60s
config *.isp_private0.private.attacker.app[4].destAddresses "\"cloud.voipServer\""
config *.isp_private0.private.attacker.app[4].destPort 8080
config *.isp_private0.private.attacker.app[4].sendInterval exponential(6ms)
config *.isp_private0.private.attacker.app[4].startTime 60s
config network NetworkTopology
config ned-path ..:../src:../../inet-4.5.4/src
config cmdenv-express-mode true
config **.scalar-recording false
config **.vector-recording false
config **.result-recording-modes -
config *.configurator.addStaticRoutes true
config *.configurator.addDefaultRoutes true
config *.configurator.optimizeRoutes false
config *.boundary.hasOspf true
config *.core0.hasOspf true
config *.core1.hasOspf true
config *.core2.hasOspf true
config *.edge0.hasOspf true
config *.edge1.hasOspf true
config *.isp_mobile0.mobile.gateway.hasOspf true
config *.isp_ftth0.ftth.gateway.hasOspf true
config *.isp_mobile1.mobile.gateway.hasOspf true
config *.isp_private0.private.gateway.hasOspf true
config *.cloud.cloudGateway.hasOspf true
config *.dataExporter.collectionInterval 10s
config *.dataExporter.congestionFile "\"results/congestion_stream.jsonl\""
config *.dataExporter.portscanFile "\"results/portscan_stream.jsonl\""
config *.dataExporter.scenarioName "\"normal\""
config *.dataExporter.congestionLabel 0
config *.dataExporter.scanLabel 0
config *.dataExporter.coreCapacityMbps 10000.0
config *.dataExporter.edgeCapacityMbps 1000.0
config *.isp_mobile0.mobile.host[*].app[*].reconnectInterval 30s
config *.isp_mobile1.mobile.host[*].app[*].reconnectInterval 30s
config *.isp_ftth0.ftth.host[*].app[*].reconnectInterval 30s
config *.isp_private0.private.host[*].app[*].reconnectInterval 30s
config *.cloud.videoServer.numApps 1
config *.cloud.videoServer.app[0].typename TcpGenericServerApp
config *.cloud.videoServer.app[0].localPort 8080
config *.cloud.videoServer.app[0].replyDelay 0s
config *.cloud.voipServer.numApps 1
config *.cloud.voipServer.app[0].typename UdpSink
config *.cloud.voipServer.app[0].localPort 5060
config *.cloud.webServer.numApps 1
config *.cloud.webServer.app[0].typename TcpGenericServerApp
config *.cloud.webServer.app[0].localPort 80
config *.cloud.webServer.app[0].replyDelay 0s
config *.cloud.fileServer.numApps 1
config *.cloud.fileServer.app[0].typename TcpGenericServerApp
config *.cloud.fileServer.app[0].localPort 21
config *.cloud.fileServer.app[0].replyDelay 0s
config *.cloud.gameServer.numApps 1
config *.cloud.gameServer.app[0].typename UdpSink
config *.cloud.gameServer.app[0].localPort 27015
config *.isp_mobile0.mobile.host[*].numApps 4
config *.isp_mobile1.mobile.host[*].numApps 4
config *.isp_mobile0.mobile.host[*].app[0].typename UdpBasicApp
config *.isp_mobile0.mobile.host[*].app[0].destAddresses "\"cloud.voipServer\""
config *.isp_mobile0.mobile.host[*].app[0].destPort 5060
config *.isp_mobile0.mobile.host[*].app[0].messageLength 160B
config *.isp_mobile0.mobile.host[*].app[0].sendInterval truncnormal(20ms,4ms)
config *.isp_mobile0.mobile.host[*].app[0].startTime uniform(60s,150s)
config *.isp_mobile0.mobile.host[*].app[0].stopTime -1s
config *.isp_mobile0.mobile.host[*].app[1].typename TcpBasicClientApp
config *.isp_mobile0.mobile.host[*].app[1].connectAddress "\"cloud.webServer\""
config *.isp_mobile0.mobile.host[*].app[1].connectPort 80
config *.isp_mobile0.mobile.host[*].app[1].requestLength 1B*int(truncnormal(500,100))
config *.isp_mobile0.mobile.host[*].app[1].replyLength 1B*int(truncnormal(80000,20000))
config *.isp_mobile0.mobile.host[*].app[1].numRequestsPerSession intuniform(5,20)
config *.isp_mobile0.mobile.host[*].app[1].thinkTime exponential(8s)
config *.isp_mobile0.mobile.host[*].app[1].idleInterval exponential(30s)
config *.isp_mobile0.mobile.host[*].app[1].startTime uniform(60s,150s)
config *.isp_mobile0.mobile.host[*].app[2].typename UdpBasicApp
config *.isp_mobile0.mobile.host[*].app[2].destAddresses "\"cloud.webServer\""
config *.isp_mobile0.mobile.host[*].app[2].destPort 443
config *.isp_mobile0.mobile.host[*].app[2].messageLength 200B
config *.isp_mobile0.mobile.host[*].app[2].sendInterval exponential(5s)
config *.isp_mobile0.mobile.host[*].app[2].startTime uniform(60s,150s)
config *.isp_mobile0.mobile.host[*].app[2].stopTime -1s
config *.isp_mobile0.mobile.host[*].app[3].typename TcpBasicClientApp
config *.isp_mobile0.mobile.host[*].app[3].connectAddress "\"cloud.videoServer\""
config *.isp_mobile0.mobile.host[*].app[3].connectPort 8080
config *.isp_mobile0.mobile.host[*].app[3].requestLength 1000B
config *.isp_mobile0.mobile.host[*].app[3].replyLength 1B*int(truncnormal(500000,100000))
config *.isp_mobile0.mobile.host[*].app[3].numRequestsPerSession intuniform(2,8)
config *.isp_mobile0.mobile.host[*].app[3].thinkTime exponential(3s)
config *.isp_mobile0.mobile.host[*].app[3].idleInterval exponential(45s)
config *.isp_mobile0.mobile.host[*].app[3].startTime uniform(60s,150s)
config *.isp_mobile1.mobile.host[*].app[0].typename UdpBasicApp
config *.isp_mobile1.mobile.host[*].app[0].destAddresses "\"cloud.voipServer\""
config *.isp_mobile1.mobile.host[*].app[0].destPort 5060
config *.isp_mobile1.mobile.host[*].app[0].messageLength 160B
config *.isp_mobile1.mobile.host[*].app[0].sendInterval truncnormal(20ms,4ms)
config *.isp_mobile1.mobile.host[*].app[0].startTime uniform(60s,150s)
config *.isp_mobile1.mobile.host[*].app[0].stopTime -1s
config *.isp_mobile1.mobile.host[*].app[1].typename TcpBasicClientApp
config *.isp_mobile1.mobile.host[*].app[1].connectAddress "\"cloud.webServer\""
config *.isp_mobile1.mobile.host[*].app[1].connectPort 80
config *.isp_mobile1.mobile.host[*].app[1].requestLength 1B*int(truncnormal(500,100))
config *.isp_mobile1.mobile.host[*].app[1].replyLength 1B*int(truncnormal(80000,20000))
config *.isp_mobile1.mobile.host[*].app[1].numRequestsPerSession intuniform(5,20)
config *.isp_mobile1.mobile.host[*].app[1].thinkTime exponential(8s)
config *.isp_mobile1.mobile.host[*].app[1].idleInterval exponential(30s)
config *.isp_mobile1.mobile.host[*].app[1].startTime uniform(60s,150s)
config *.isp_mobile1.mobile.host[*].app[2].typename UdpBasicApp
config *.isp_mobile1.mobile.host[*].app[2].destAddresses "\"cloud.webServer\""
config *.isp_mobile1.mobile.host[*].app[2].destPort 443
config *.isp_mobile1.mobile.host[*].app[2].messageLength 200B
config *.isp_mobile1.mobile.host[*].app[2].sendInterval exponential(5s)
config *.isp_mobile1.mobile.host[*].app[2].startTime uniform(60s,150s)
config *.isp_mobile1.mobile.host[*].app[2].stopTime -1s
config *.isp_mobile1.mobile.host[*].app[3].typename TcpBasicClientApp
config *.isp_mobile1.mobile.host[*].app[3].connectAddress "\"cloud.videoServer\""
config *.isp_mobile1.mobile.host[*].app[3].connectPort 8080
config *.isp_mobile1.mobile.host[*].app[3].requestLength 1000B
config *.isp_mobile1.mobile.host[*].app[3].replyLength 1B*int(truncnormal(500000,100000))
config *.isp_mobile1.mobile.host[*].app[3].numRequestsPerSession intuniform(2,8)
config *.isp_mobile1.mobile.host[*].app[3].thinkTime exponential(3s)
config *.isp_mobile1.mobile.host[*].app[3].idleInterval exponential(45s)
config *.isp_mobile1.mobile.host[*].app[3].startTime uniform(60s,150s)
config *.isp_ftth0.ftth.host[*].numApps 4
config *.isp_ftth0.ftth.host[*].app[0].typename TcpBasicClientApp
config *.isp_ftth0.ftth.host[*].app[0].connectAddress "\"cloud.videoServer\""
config *.isp_ftth0.ftth.host[*].app[0].connectPort 8080
config *.isp_ftth0.ftth.host[*].app[0].requestLength 1000B
config *.isp_ftth0.ftth.host[*].app[0].replyLength 1B*int(truncnormal(3000000,600000))
config *.isp_ftth0.ftth.host[*].app[0].numRequestsPerSession intuniform(5,20)
config *.isp_ftth0.ftth.host[*].app[0].thinkTime exponential(1s)
config *.isp_ftth0.ftth.host[*].app[0].idleInterval exponential(30s)
config *.isp_ftth0.ftth.host[*].app[0].startTime uniform(60s,150s)
config *.isp_ftth0.ftth.host[*].app[1].typename UdpBasicApp
config *.isp_ftth0.ftth.host[*].app[1].destAddresses "\"cloud.gameServer\""
config *.isp_ftth0.ftth.host[*].app[1].destPort 27015
config *.isp_ftth0.ftth.host[*].app[1].messageLength 120B
config *.isp_ftth0.ftth.host[*].app[1].sendInterval truncnormal(33ms,5ms)
config *.isp_ftth0.ftth.host[*].app[1].startTime uniform(60s,150s)
config *.isp_ftth0.ftth.host[*].app[1].stopTime -1s
config *.isp_ftth0.ftth.host[*].app[2].typename TcpBasicClientApp
config *.isp_ftth0.ftth.host[*].app[2].connectAddress "\"cloud.fileServer\""
config *.isp_ftth0.ftth.host[*].app[2].connectPort 21
config *.isp_ftth0.ftth.host[*].app[2].requestLength 500B
config *.isp_ftth0.ftth.host[*].app[2].replyLength 1B*int(truncnormal(15000000,3000000))
config *.isp_ftth0.ftth.host[*].app[2].numRequestsPerSession intuniform(1,4)
config *.isp_ftth0.ftth.host[*].app[2].thinkTime exponential(5s)
config *.isp_ftth0.ftth.host[*].app[2].idleInterval exponential(120s)
config *.isp_ftth0.ftth.host[*].app[2].startTime uniform(120s,150s)
config *.isp_ftth0.ftth.host[*].app[3].typename UdpBasicApp
config *.isp_ftth0.ftth.host[*].app[3].destAddresses "\"cloud.webServer\""
config *.isp_ftth0.ftth.host[*].app[3].destPort 53
config *.isp_ftth0.ftth.host[*].app[3].messageLength 64B
config *.isp_ftth0.ftth.host[*].app[3].sendInterval exponential(10s)
config *.isp_ftth0.ftth.host[*].app[3].startTime uniform(60s,150s)
config *.isp_ftth0.ftth.host[*].app[3].stopTime -1s
config *.isp_private0.private.host[*].numApps 4
config *.isp_private0.private.host[*].app[0].typename TcpBasicClientApp
config *.isp_private0.private.host[*].app[0].connectAddress "\"cloud.webServer\""
config *.isp_private0.private.host[*].app[0].connectPort 3306
config *.isp_private0.private.host[*].app[0].requestLength 1B*int(truncnormal(2000,400))
config *.isp_private0.private.host[*].app[0].replyLength 1B*int(truncnormal(20000,5000))
config *.isp_private0.private.host[*].app[0].numRequestsPerSession intuniform(10,50)
config *.isp_private0.private.host[*].app[0].thinkTime exponential(0.5s)
config *.isp_private0.private.host[*].app[0].idleInterval exponential(8s)
config *.isp_private0.private.host[*].app[0].startTime uniform(60s,150s)
config *.isp_private0.private.host[*].app[1].typename TcpBasicClientApp
config *.isp_private0.private.host[*].app[1].connectAddress "\"cloud.webServer\""
config *.isp_private0.private.host[*].app[1].connectPort 25
config *.isp_private0.private.host[*].app[1].requestLength 1B*int(truncnormal(8000,2000))
config *.isp_private0.private.host[*].app[1].replyLength 1B*int(truncnormal(3000,1000))
config *.isp_private0.private.host[*].app[1].numRequestsPerSession intuniform(1,5)
config *.isp_private0.private.host[*].app[1].thinkTime exponential(60s)
config *.isp_private0.private.host[*].app[1].idleInterval exponential(300s)
config *.isp_private0.private.host[*].app[1].startTime uniform(60s,150s)
config *.isp_private0.private.host[*].app[2].typename TcpBasicClientApp
config *.isp_private0.private.host[*].app[2].connectAddress "\"cloud.fileServer\""
config *.isp_private0.private.host[*].app[2].connectPort 445
config *.isp_private0.private.host[*].app[2].requestLength 1B*int(truncnormal(2000,400))
config *.isp_private0.private.host[*].app[2].replyLength 1B*int(truncnormal(800000,200000))
config *.isp_private0.private.host[*].app[2].numRequestsPerSession intuniform(5,20)
config *.isp_private0.private.host[*].app[2].thinkTime exponential(5s)
config *.isp_private0.private.host[*].app[2].idleInterval exponential(60s)
config *.isp_private0.private.host[*].app[2].startTime uniform(60s,150s)
config *.isp_private0.private.host[*].app[3].typename TcpBasicClientApp
config *.isp_private0.private.host[*].app[3].connectAddress "\"cloud.webServer\""
config *.isp_private0.private.host[*].app[3].connectPort 443
config *.isp_private0.private.host[*].app[3].requestLength 400B
config *.isp_private0.private.host[*].app[3].replyLength 1B*int(truncnormal(5000,1000))
config *.isp_private0.private.host[*].app[3].numRequestsPerSession intuniform(10,40)
config *.isp_private0.private.host[*].app[3].thinkTime exponential(2s)
config *.isp_private0.private.host[*].app[3].idleInterval exponential(5s)
config *.isp_private0.private.host[*].app[3].startTime uniform(60s,150s)
config *.isp_private0.private.attacker.numApps 0

par NetworkTopology.boundary.ethg$o[0].channel typename "\"BoundaryToCloudChannel\""
par NetworkTopology.boundary.ethg$o[0].channel disabled false
attr mutable ""
par NetworkTopology.boundary.ethg$o[0].channel delay 0.001s
attr mutable ""
attr unit s
par NetworkTopology.boundary.ethg$o[0].channel datarate 1e+10bps
attr mutable ""
attr unit bps
par NetworkTopology.boundary.ethg$o[0].channel ber 1e-10
attr mutable ""
par NetworkTopology.boundary.ethg$o[0].channel per 0
attr mutable ""
par NetworkTopology.boundary.ethg$o[0].channel displayAsTooltip false
par NetworkTopology.boundary.ethg$o[0].channel thruputDisplayFormat "\"u\""
par NetworkTopology.cloud.uplinkGate$o.channel typename "\"BoundaryToCloudChannel\""
par NetworkTopology.cloud.uplinkGate$o.channel disabled false
attr mutable ""
par NetworkTopology.cloud.uplinkGate$o.channel delay 0.001s
attr mutable ""
attr unit s
par NetworkTopology.cloud.uplinkGate$o.channel datarate 1e+10bps
attr mutable ""
attr unit bps
par NetworkTopology.cloud.uplinkGate$o.channel ber 1e-10
attr mutable ""
par NetworkTopology.cloud.uplinkGate$o.channel per 0
attr mutable ""
par NetworkTopology.cloud.uplinkGate$o.channel displayAsTooltip false
par NetworkTopology.cloud.uplinkGate$o.channel thruputDisplayFormat "\"u\""
par NetworkTopology.boundary.ethg$o[1].channel typename "\"CoreBackboneChannel\""
par NetworkTopology.boundary.ethg$o[1].channel disabled false
attr mutable ""
par NetworkTopology.boundary.ethg$o[1].channel delay 0.002s
attr mutable ""
attr unit s
par NetworkTopology.boundary.ethg$o[1].channel datarate 1e+10bps
attr mutable ""
attr unit bps
par NetworkTopology.boundary.ethg$o[1].channel ber 1e-09
attr mutable ""
par NetworkTopology.boundary.ethg$o[1].channel per 0
attr mutable ""
par NetworkTopology.boundary.ethg$o[1].channel displayAsTooltip false
par NetworkTopology.boundary.ethg$o[1].channel thruputDisplayFormat "\"u\""
par NetworkTopology.core0.ethg$o[0].channel typename "\"CoreBackboneChannel\""
par NetworkTopology.core0.ethg$o[0].channel disabled false
attr mutable ""
par NetworkTopology.core0.ethg$o[0].channel delay 0.002s
attr mutable ""
attr unit s
par NetworkTopology.core0.ethg$o[0].channel datarate 1e+10bps
attr mutable ""
attr unit bps
par NetworkTopology.core0.ethg$o[0].channel ber 1e-09
attr mutable ""
par NetworkTopology.core0.ethg$o[0].channel per 0
attr mutable ""
par NetworkTopology.core0.ethg$o[0].channel displayAsTooltip false
par NetworkTopology.core0.ethg$o[0].channel thruputDisplayFormat "\"u\""
par NetworkTopology.boundary.ethg$o[2].channel typename "\"CoreBackboneChannel\""
par NetworkTopology.boundary.ethg$o[2].channel disabled false
attr mutable ""
par NetworkTopology.boundary.ethg$o[2].channel delay 0.002s
attr mutable ""
attr unit s
par NetworkTopology.boundary.ethg$o[2].channel datarate 1e+10bps
attr mutable ""
attr unit bps
par NetworkTopology.boundary.ethg$o[2].channel ber 1e-09
attr mutable ""
par NetworkTopology.boundary.ethg$o[2].channel per 0
attr mutable ""
par NetworkTopology.boundary.ethg$o[2].channel displayAsTooltip false
par NetworkTopology.boundary.ethg$o[2].channel thruputDisplayFormat "\"u\""
par NetworkTopology.core1.ethg$o[0].channel typename "\"CoreBackboneChannel\""
par NetworkTopology.core1.ethg$o[0].channel disabled false
attr mutable ""
par NetworkTopology.core1.ethg$o[0].channel delay 0.002s
attr mutable ""
attr unit s
par NetworkTopology.core1.ethg$o[0].channel datarate 1e+10bps
attr mutable ""
attr unit bps
par NetworkTopology.core1.ethg$o[0].channel ber 1e-09
attr mutable ""
par NetworkTopology.core1.ethg$o[0].channel per 0
attr mutable ""
par NetworkTopology.core1.ethg$o[0].channel displayAsTooltip false
par NetworkTopology.core1.ethg$o[0].channel thruputDisplayFormat "\"u\""
par NetworkTopology.boundary.ethg$o[3].channel typename "\"CoreBackboneChannel\""
par NetworkTopology.boundary.ethg$o[3].channel disabled false
attr mutable ""
par NetworkTopology.boundary.ethg$o[3].channel delay 0.002s
attr mutable ""
attr unit s
par NetworkTopology.boundary.ethg$o[3].channel datarate 1e+10bps
attr mutable ""
attr unit bps
par NetworkTopology.boundary.ethg$o[3].channel ber 1e-09
attr mutable ""
par NetworkTopology.boundary.ethg$o[3].channel per 0
attr mutable ""
par NetworkTopology.boundary.ethg$o[3].channel displayAsTooltip false
par NetworkTopology.boundary.ethg$o[3].channel thruputDisplayFormat "\"u\""
par NetworkTopology.core2.ethg$o[0].channel typename "\"CoreBackboneChannel\""
par NetworkTopology.core2.ethg$o[0].channel disabled false
attr mutable ""
par NetworkTopology.core2.ethg$o[0].channel delay 0.002s
attr mutable ""
attr unit s
par NetworkTopology.core2.ethg$o[0].channel datarate 1e+10bps
attr mutable ""
attr unit bps
par NetworkTopology.core2.ethg$o[0].channel ber 1e-09
attr mutable ""
par NetworkTopology.core2.ethg$o[0].channel per 0
attr mutable ""
par NetworkTopology.core2.ethg$o[0].channel displayAsTooltip false
par NetworkTopology.core2.ethg$o[0].channel thruputDisplayFormat "\"u\""
par NetworkTopology.core0.ethg$o[1].channel typename "\"CoreBackboneChannel\""
par NetworkTopology.core0.ethg$o[1].channel disabled false
attr mutable ""
par NetworkTopology.core0.ethg$o[1].channel delay 0.002s
attr mutable ""
attr unit s
par NetworkTopology.core0.ethg$o[1].channel datarate 1e+10bps
attr mutable ""
attr unit bps
par NetworkTopology.core0.ethg$o[1].channel ber 1e-09
attr mutable ""
par NetworkTopology.core0.ethg$o[1].channel per 0
attr mutable ""
par NetworkTopology.core0.ethg$o[1].channel displayAsTooltip false
par NetworkTopology.core0.ethg$o[1].channel thruputDisplayFormat "\"u\""
par NetworkTopology.core1.ethg$o[1].channel typename "\"CoreBackboneChannel\""
par NetworkTopology.core1.ethg$o[1].channel disabled false
attr mutable ""
par NetworkTopology.core1.ethg$o[1].channel delay 0.002s
attr mutable ""
attr unit s
par NetworkTopology.core1.ethg$o[1].channel datarate 1e+10bps
attr mutable ""
attr unit bps
par NetworkTopology.core1.ethg$o[1].channel ber 1e-09
attr mutable ""
par NetworkTopology.core1.ethg$o[1].channel per 0
attr mutable ""
par NetworkTopology.core1.ethg$o[1].channel displayAsTooltip false
par NetworkTopology.core1.ethg$o[1].channel thruputDisplayFormat "\"u\""
par NetworkTopology.core1.ethg$o[2].channel typename "\"CoreBackboneChannel\""
par NetworkTopology.core1.ethg$o[2].channel disabled false
attr mutable ""
par NetworkTopology.core1.ethg$o[2].channel delay 0.002s
attr mutable ""
attr unit s
par NetworkTopology.core1.ethg$o[2].channel datarate 1e+10bps
attr mutable ""
attr unit bps
par NetworkTopology.core1.ethg$o[2].channel ber 1e-09
attr mutable ""
par NetworkTopology.core1.ethg$o[2].channel per 0
attr mutable ""
par NetworkTopology.core1.ethg$o[2].channel displayAsTooltip false
par NetworkTopology.core1.ethg$o[2].channel thruputDisplayFormat "\"u\""
par NetworkTopology.core2.ethg$o[1].channel typename "\"CoreBackboneChannel\""
par NetworkTopology.core2.ethg$o[1].channel disabled false
attr mutable ""
par NetworkTopology.core2.ethg$o[1].channel delay 0.002s
attr mutable ""
attr unit s
par NetworkTopology.core2.ethg$o[1].channel datarate 1e+10bps
attr mutable ""
attr unit bps
par NetworkTopology.core2.ethg$o[1].channel ber 1e-09
attr mutable ""
par NetworkTopology.core2.ethg$o[1].channel per 0
attr mutable ""
par NetworkTopology.core2.ethg$o[1].channel displayAsTooltip false
par NetworkTopology.core2.ethg$o[1].channel thruputDisplayFormat "\"u\""
par NetworkTopology.core2.ethg$o[2].channel typename "\"CoreBackboneChannel\""
par NetworkTopology.core2.ethg$o[2].channel disabled false
attr mutable ""
par NetworkTopology.core2.ethg$o[2].channel delay 0.002s
attr mutable ""
attr unit s
par NetworkTopology.core2.ethg$o[2].channel datarate 1e+10bps
attr mutable ""
attr unit bps
par NetworkTopology.core2.ethg$o[2].channel ber 1e-09
attr mutable ""
par NetworkTopology.core2.ethg$o[2].channel per 0
attr mutable ""
par NetworkTopology.core2.ethg$o[2].channel displayAsTooltip false
par NetworkTopology.core2.ethg$o[2].channel thruputDisplayFormat "\"u\""
par NetworkTopology.core0.ethg$o[2].channel typename "\"CoreBackboneChannel\""
par NetworkTopology.core0.ethg$o[2].channel disabled false
attr mutable ""
par NetworkTopology.core0.ethg$o[2].channel delay 0.002s
attr mutable ""
attr unit s
par NetworkTopology.core0.ethg$o[2].channel datarate 1e+10bps
attr mutable ""
attr unit bps
par NetworkTopology.core0.ethg$o[2].channel ber 1e-09
attr mutable ""
par NetworkTopology.core0.ethg$o[2].channel per 0
attr mutable ""
par NetworkTopology.core0.ethg$o[2].channel displayAsTooltip false
par NetworkTopology.core0.ethg$o[2].channel thruputDisplayFormat "\"u\""
par NetworkTopology.core0.ethg$o[3].channel typename "\"CoreToEdgeChannel\""
par NetworkTopology.core0.ethg$o[3].channel disabled false
attr mutable ""
par NetworkTopology.core0.ethg$o[3].channel delay 0.005s
attr mutable ""
attr unit s
par NetworkTopology.core0.ethg$o[3].channel datarate 1e+09bps
attr mutable ""
attr unit bps
par NetworkTopology.core0.ethg$o[3].channel ber 1e-09
attr mutable ""
par NetworkTopology.core0.ethg$o[3].channel per 0
attr mutable ""
par NetworkTopology.core0.ethg$o[3].channel displayAsTooltip false
par NetworkTopology.core0.ethg$o[3].channel thruputDisplayFormat "\"u\""
par NetworkTopology.edge0.ethg$o[0].channel typename "\"CoreToEdgeChannel\""
par NetworkTopology.edge0.ethg$o[0].channel disabled false
attr mutable ""
par NetworkTopology.edge0.ethg$o[0].channel delay 0.005s
attr mutable ""
attr unit s
par NetworkTopology.edge0.ethg$o[0].channel datarate 1e+09bps
attr mutable ""
attr unit bps
par NetworkTopology.edge0.ethg$o[0].channel ber 1e-09
attr mutable ""
par NetworkTopology.edge0.ethg$o[0].channel per 0
attr mutable ""
par NetworkTopology.edge0.ethg$o[0].channel displayAsTooltip false
par NetworkTopology.edge0.ethg$o[0].channel thruputDisplayFormat "\"u\""
par NetworkTopology.core1.ethg$o[3].channel typename "\"CoreToEdgeChannel\""
par NetworkTopology.core1.ethg$o[3].channel disabled false
attr mutable ""
par NetworkTopology.core1.ethg$o[3].channel delay 0.005s
attr mutable ""
attr unit s
par NetworkTopology.core1.ethg$o[3].channel datarate 1e+09bps
attr mutable ""
attr unit bps
par NetworkTopology.core1.ethg$o[3].channel ber 1e-09
attr mutable ""
par NetworkTopology.core1.ethg$o[3].channel per 0
attr mutable ""
par NetworkTopology.core1.ethg$o[3].channel displayAsTooltip false
par NetworkTopology.core1.ethg$o[3].channel thruputDisplayFormat "\"u\""
par NetworkTopology.edge0.ethg$o[1].channel typename "\"CoreToEdgeChannel\""
par NetworkTopology.edge0.ethg$o[1].channel disabled false
attr mutable ""
par NetworkTopology.edge0.ethg$o[1].channel delay 0.005s
attr mutable ""
attr unit s
par NetworkTopology.edge0.ethg$o[1].channel datarate 1e+09bps
attr mutable ""
attr unit bps
par NetworkTopology.edge0.ethg$o[1].channel ber 1e-09
attr mutable ""
par NetworkTopology.edge0.ethg$o[1].channel per 0
attr mutable ""
par NetworkTopology.edge0.ethg$o[1].channel displayAsTooltip false
par NetworkTopology.edge0.ethg$o[1].channel thruputDisplayFormat "\"u\""
par NetworkTopology.core1.ethg$o[4].channel typename "\"CoreToEdgeChannel\""
par NetworkTopology.core1.ethg$o[4].channel disabled false
attr mutable ""
par NetworkTopology.core1.ethg$o[4].channel delay 0.005s
attr mutable ""
attr unit s
par NetworkTopology.core1.ethg$o[4].channel datarate 1e+09bps
attr mutable ""
attr unit bps
par NetworkTopology.core1.ethg$o[4].channel ber 1e-09
attr mutable ""
par NetworkTopology.core1.ethg$o[4].channel per 0
attr mutable ""
par NetworkTopology.core1.ethg$o[4].channel displayAsTooltip false
par NetworkTopology.core1.ethg$o[4].channel thruputDisplayFormat "\"u\""
par NetworkTopology.edge1.ethg$o[0].channel typename "\"CoreToEdgeChannel\""
par NetworkTopology.edge1.ethg$o[0].channel disabled false
attr mutable ""
par NetworkTopology.edge1.ethg$o[0].channel delay 0.005s
attr mutable ""
attr unit s
par NetworkTopology.edge1.ethg$o[0].channel datarate 1e+09bps
attr mutable ""
attr unit bps
par NetworkTopology.edge1.ethg$o[0].channel ber 1e-09
attr mutable ""
par NetworkTopology.edge1.ethg$o[0].channel per 0
attr mutable ""
par NetworkTopology.edge1.ethg$o[0].channel displayAsTooltip false
par NetworkTopology.edge1.ethg$o[0].channel thruputDisplayFormat "\"u\""
par NetworkTopology.core2.ethg$o[3].channel typename "\"CoreToEdgeChannel\""
par NetworkTopology.core2.ethg$o[3].channel disabled false
attr mutable ""
par NetworkTopology.core2.ethg$o[3].channel delay 0.005s
attr mutable ""
attr unit s
par NetworkTopology.core2.ethg$o[3].channel datarate 1e+09bps
attr mutable ""
attr unit bps
par NetworkTopology.core2.ethg$o[3].channel ber 1e-09
attr mutable ""
par NetworkTopology.core2.ethg$o[3].channel per 0
attr mutable ""
par NetworkTopology.core2.ethg$o[3].channel displayAsTooltip false
par NetworkTopology.core2.ethg$o[3].channel thruputDisplayFormat "\"u\""
par NetworkTopology.edge1.ethg$o[1].channel typename "\"CoreToEdgeChannel\""
par NetworkTopology.edge1.ethg$o[1].channel disabled false
attr mutable ""
par NetworkTopology.edge1.ethg$o[1].channel delay 0.005s
attr mutable ""
attr unit s
par NetworkTopology.edge1.ethg$o[1].channel datarate 1e+09bps
attr mutable ""
attr unit bps
par NetworkTopology.edge1.ethg$o[1].channel ber 1e-09
attr mutable ""
par NetworkTopology.edge1.ethg$o[1].channel per 0
attr mutable ""
par NetworkTopology.edge1.ethg$o[1].channel displayAsTooltip false
par NetworkTopology.edge1.ethg$o[1].channel thruputDisplayFormat "\"u\""
par NetworkTopology.edge0.ethg$o[2].channel typename "\"EdgeToIspChannel\""
par NetworkTopology.edge0.ethg$o[2].channel disabled false
attr mutable ""
par NetworkTopology.edge0.ethg$o[2].channel delay 0.008s
attr mutable ""
attr unit s
par NetworkTopology.edge0.ethg$o[2].channel datarate 1e+09bps
attr mutable ""
attr unit bps
par NetworkTopology.edge0.ethg$o[2].channel ber 1e-08
attr mutable ""
par NetworkTopology.edge0.ethg$o[2].channel per 0
attr mutable ""
par NetworkTopology.edge0.ethg$o[2].channel displayAsTooltip false
par NetworkTopology.edge0.ethg$o[2].channel thruputDisplayFormat "\"u\""
par NetworkTopology.isp_mobile0.uplinkGate$o.channel typename "\"EdgeToIspChannel\""
par NetworkTopology.isp_mobile0.uplinkGate$o.channel disabled false
attr mutable ""
par NetworkTopology.isp_mobile0.uplinkGate$o.channel delay 0.008s
attr mutable ""
attr unit s
par NetworkTopology.isp_mobile0.uplinkGate$o.channel datarate 1e+09bps
attr mutable ""
attr unit bps
par NetworkTopology.isp_mobile0.uplinkGate$o.channel ber 1e-08
attr mutable ""
par NetworkTopology.isp_mobile0.uplinkGate$o.channel per 0
attr mutable ""
par NetworkTopology.isp_mobile0.uplinkGate$o.channel displayAsTooltip false
par NetworkTopology.isp_mobile0.uplinkGate$o.channel thruputDisplayFormat "\"u\""
par NetworkTopology.edge0.ethg$o[3].channel typename "\"EdgeToIspChannel\""
par NetworkTopology.edge0.ethg$o[3].channel disabled false
attr mutable ""
par NetworkTopology.edge0.ethg$o[3].channel delay 0.008s
attr mutable ""
attr unit s
par NetworkTopology.edge0.ethg$o[3].channel datarate 1e+09bps
attr mutable ""
attr unit bps
par NetworkTopology.edge0.ethg$o[3].channel ber 1e-08
attr mutable ""
par NetworkTopology.edge0.ethg$o[3].channel per 0
attr mutable ""
par NetworkTopology.edge0.ethg$o[3].channel displayAsTooltip false
par NetworkTopology.edge0.ethg$o[3].channel thruputDisplayFormat "\"u\""
par NetworkTopology.isp_ftth0.uplinkGate$o.channel typename "\"EdgeToIspChannel\""
par NetworkTopology.isp_ftth0.uplinkGate$o.channel disabled false
attr mutable ""
par NetworkTopology.isp_ftth0.uplinkGate$o.channel delay 0.008s
attr mutable ""
attr unit s
par NetworkTopology.isp_ftth0.uplinkGate$o.channel datarate 1e+09bps
attr mutable ""
attr unit bps
par NetworkTopology.isp_ftth0.uplinkGate$o.channel ber 1e-08
attr mutable ""
par NetworkTopology.isp_ftth0.uplinkGate$o.channel per 0
attr mutable ""
par NetworkTopology.isp_ftth0.uplinkGate$o.channel displayAsTooltip false
par NetworkTopology.isp_ftth0.uplinkGate$o.channel thruputDisplayFormat "\"u\""
par NetworkTopology.edge1.ethg$o[2].channel typename "\"EdgeToIspChannel\""
par NetworkTopology.edge1.ethg$o[2].channel disabled false
attr mutable ""
par NetworkTopology.edge1.ethg$o[2].channel delay 0.008s
attr mutable ""
attr unit s
par NetworkTopology.edge1.ethg$o[2].channel datarate 1e+09bps
attr mutable ""
attr unit bps
par NetworkTopology.edge1.ethg$o[2].channel ber 1e-08
attr mutable ""
par NetworkTopology.edge1.ethg$o[2].channel per 0
attr mutable ""
par NetworkTopology.edge1.ethg$o[2].channel displayAsTooltip false
par NetworkTopology.edge1.ethg$o[2].channel thruputDisplayFormat "\"u\""
par NetworkTopology.isp_mobile1.uplinkGate$o.channel typename "\"EdgeToIspChannel\""
par NetworkTopology.isp_mobile1.uplinkGate$o.channel disabled false
attr mutable ""
par NetworkTopology.isp_mobile1.uplinkGate$o.channel delay 0.008s
attr mutable ""
attr unit s
par NetworkTopology.isp_mobile1.uplinkGate$o.channel datarate 1e+09bps
attr mutable ""
attr unit bps
par NetworkTopology.isp_mobile1.uplinkGate$o.channel ber 1e-08
attr mutable ""
par NetworkTopology.isp_mobile1.uplinkGate$o.channel per 0
attr mutable ""
par NetworkTopology.isp_mobile1.uplinkGate$o.channel displayAsTooltip false
par NetworkTopology.isp_mobile1.uplinkGate$o.channel thruputDisplayFormat "\"u\""
par NetworkTopology.edge1.ethg$o[3].channel typename "\"EdgeToIspChannel\""
par NetworkTopology.edge1.ethg$o[3].channel disabled false
attr mutable ""
par NetworkTopology.edge1.ethg$o[3].channel delay 0.008s
attr mutable ""
attr unit s
par NetworkTopology.edge1.ethg$o[3].channel datarate 1e+09bps
attr mutable ""
attr unit bps
par NetworkTopology.edge1.ethg$o[3].channel ber 1e-08
attr mutable ""
par NetworkTopology.edge1.ethg$o[3].channel per 0
attr mutable ""
par NetworkTopology.edge1.ethg$o[3].channel displayAsTooltip false
par NetworkTopology.edge1.ethg$o[3].channel thruputDisplayFormat "\"u\""
par NetworkTopology.isp_private0.uplinkGate$o.channel typename "\"EdgeToIspChannel\""
par NetworkTopology.isp_private0.uplinkGate$o.channel disabled false
attr mutable ""
par NetworkTopology.isp_private0.uplinkGate$o.channel delay 0.008s
attr mutable ""
attr unit s
par NetworkTopology.isp_private0.uplinkGate$o.channel datarate 1e+09bps
attr mutable ""
attr unit bps
par NetworkTopology.isp_private0.uplinkGate$o.channel ber 1e-08
attr mutable ""
par NetworkTopology.isp_private0.uplinkGate$o.channel per 0
attr mutable ""
par NetworkTopology.isp_private0.uplinkGate$o.channel displayAsTooltip false
par NetworkTopology.isp_private0.uplinkGate$o.channel thruputDisplayFormat "\"u\""
par NetworkTopology.configurator typename "\"inet.networklayer.configurator.ipv4.Ipv4NetworkConfigurator\""
par NetworkTopology.configurator minLinkWeight 0.001
par NetworkTopology.configurator configureIsolatedNetworksSeparatly false
par NetworkTopology.configurator config "<config>...</config> at content:1"
par NetworkTopology.configurator assignAddresses true
par NetworkTopology.configurator assignUniqueAddresses true
par NetworkTopology.configurator assignDisjunctSubnetAddresses true
par NetworkTopology.configurator addStaticRoutes true
par NetworkTopology.configurator addDefaultRoutes true
par NetworkTopology.configurator addSubnetRoutes true
par NetworkTopology.configurator addDirectRoutes true
par NetworkTopology.configurator optimizeRoutes false
par NetworkTopology.configurator dumpTopology false
par NetworkTopology.configurator dumpLinks false
par NetworkTopology.configurator dumpAddresses false
par NetworkTopology.configurator dumpRoutes false
par NetworkTopology.configurator dumpConfig "\"\""
par NetworkTopology.scenarioManager typename "\"inet.common.scenario.ScenarioManager\""
par NetworkTopology.scenarioManager script "<scenario>...</scenario> at /home/opp_env/default_workspace/netsim/xml/scenario_portscan.xml:1"
par NetworkTopology.dataExporter typename "\"src.DataExporter\""
par NetworkTopology.dataExporter collectionInterval 10s
attr unit s
par NetworkTopology.dataExporter congestionFile "\"results/congestion_stream.jsonl\""
par NetworkTopology.dataExporter portscanFile "\"results/portscan_stream.jsonl\""
par NetworkTopology.dataExporter scenarioName "\"scan_block\""
attr mutable ""
par NetworkTopology.dataExporter congestionLabel 0
attr mutable ""
par NetworkTopology.dataExporter scanLabel 3
attr mutable ""
par NetworkTopology.dataExporter coreCapacityMbps 10000
par NetworkTopology.dataExporter edgeCapacityMbps 1000
par NetworkTopology.cloud.videoServer.ethg$o[0].channel typename "\"CoreBackboneChannel\""
par NetworkTopology.cloud.videoServer.ethg$o[0].channel disabled false
attr mutable ""
par NetworkTopology.cloud.videoServer.ethg$o[0].channel delay 0.002s
attr mutable ""
attr unit s
par NetworkTopology.cloud.videoServer.ethg$o[0].channel datarate 1e+10bps
attr mutable ""
attr unit bps
par NetworkTopology.cloud.videoServer.ethg$o[0].channel ber 1e-09
attr mutable ""
par NetworkTopology.cloud.videoServer.ethg$o[0].channel per 0
attr mutable ""
par NetworkTopology.cloud.videoServer.ethg$o[0].channel displayAsTooltip false
par NetworkTopology.cloud.videoServer.ethg$o[0].channel thruputDisplayFormat "\"u\""
par NetworkTopology.cloud.cloudGateway.ethg$o[0].channel typename "\"CoreBackboneChannel\""
par NetworkTopology.cloud.cloudGateway.ethg$o[0].channel disabled false
attr mutable ""
par NetworkTopology.cloud.cloudGateway.ethg$o[0].channel delay 0.002s
attr mutable ""
attr unit s
par NetworkTopology.cloud.cloudGateway.ethg$o[0].channel datarate 1e+10bps
attr mutable ""
attr unit bps
par NetworkTopology.cloud.cloudGateway.ethg$o[0].channel ber 1e-09
attr mutable ""
par NetworkTopology.cloud.cloudGateway.ethg$o[0].channel per 0
attr mutable ""
par NetworkTopology.cloud.cloudGateway.ethg$o[0].channel displayAsTooltip false
par NetworkTopology.cloud.cloudGateway.ethg$o[0].channel thruputDisplayFormat "\"u\""
par NetworkTopology.cloud.voipServer.ethg$o[0].channel typename "\"CoreBackboneChannel\""
par NetworkTopology.cloud.voipServer.ethg$o[0].channel disabled false
attr mutable ""
par NetworkTopology.cloud.voipServer.ethg$o[0].channel delay 0.002s
attr mutable ""
attr unit s
par NetworkTopology.cloud.voipServer.ethg$o[0].channel datarate 1e+10bps
attr mutable ""
attr unit bps
par NetworkTopology.cloud.voipServer.ethg$o[0].channel ber 1e-09
attr mutable ""
par NetworkTopology.cloud.voipServer.ethg$o[0].channel per 0
attr mutable ""
par NetworkTopology.cloud.voipServer.ethg$o[0].channel displayAsTooltip false
par NetworkTopology.cloud.voipServer.ethg$o[0].channel thruputDisplayFormat "\"u\""
par NetworkTopology.cloud.cloudGateway.ethg$o[1].channel typename "\"CoreBackboneChannel\""
par NetworkTopology.cloud.cloudGateway.ethg$o[1].channel disabled false
attr mutable ""
par NetworkTopology.cloud.cloudGateway.ethg$o[1].channel delay 0.002s
attr mutable ""
attr unit s
par NetworkTopology.cloud.cloudGateway.ethg$o[1].channel datarate 1e+10bps
attr mutable ""
attr unit bps
par NetworkTopology.cloud.cloudGateway.ethg$o[1].channel ber 1e-09
attr mutable ""
par NetworkTopology.cloud.cloudGateway.ethg$o[1].channel per 0
attr mutable ""
par NetworkTopology.cloud.cloudGateway.ethg$o[1].channel displayAsTooltip false
par NetworkTopology.cloud.cloudGateway.ethg$o[1].channel thruputDisplayFormat "\"u\""
par NetworkTopology.cloud.webServer.ethg$o[0].channel typename "\"CoreBackboneChannel\""
par NetworkTopology.cloud.webServer.ethg$o[0].channel disabled false
attr mutable ""
par NetworkTopology.cloud.webServer.ethg$o[0].channel delay 0.002s
attr mutable ""
attr unit s
par NetworkTopology.cloud.webServer.ethg$o[0].channel datarate 1e+10bps
attr mutable ""
attr unit bps
par NetworkTopology.cloud.webServer.ethg$o[0].channel ber 1e-09
attr mutable ""
par NetworkTopology.cloud.webServer.ethg$o[0].channel per 0
attr mutable ""
par NetworkTopology.cloud.webServer.ethg$o[0].channel displayAsTooltip false
par NetworkTopology.cloud.webServer.ethg$o[0].channel thruputDisplayFormat "\"u\""
par NetworkTopology.cloud.cloudGateway.ethg$o[2].channel typename "\"CoreBackboneChannel\""
par NetworkTopology.cloud.cloudGateway.ethg$o[2].channel disabled false
attr mutable ""
par NetworkTopology.cloud.cloudGateway.ethg$o[2].channel delay 0.002s
attr mutable ""
attr unit s
par NetworkTopology.cloud.cloudGateway.ethg$o[2].channel datarate 1e+10bps
attr mutable ""
attr unit bps
par NetworkTopology.cloud.cloudGateway.ethg$o[2].channel ber 1e-09
attr mutable ""
par NetworkTopology.cloud.cloudGateway.ethg$o[2].channel per 0
attr mutable ""
par NetworkTopology.cloud.cloudGateway.ethg$o[2].channel displayAsTooltip false
par NetworkTopology.cloud.cloudGateway.ethg$o[2].channel thruputDisplayFormat "\"u\""
par NetworkTopology.cloud.fileServer.ethg$o[0].channel typename "\"CoreBackboneChannel\""
par NetworkTopology.cloud.fileServer.ethg$o[0].channel disabled false
attr mutable ""
par NetworkTopology.cloud.fileServer.ethg$o[0].channel delay 0.002s
attr mutable ""
attr unit s
par NetworkTopology.cloud.fileServer.ethg$o[0].channel datarate 1e+10bps
attr mutable ""
attr unit bps
par NetworkTopology.cloud.fileServer.ethg$o[0].channel ber 1e-09
attr mutable ""
par NetworkTopology.cloud.fileServer.ethg$o[0].channel per 0
attr mutable ""
par NetworkTopology.cloud.fileServer.ethg$o[0].channel displayAsTooltip false
par NetworkTopology.cloud.fileServer.ethg$o[0].channel thruputDisplayFormat "\"u\""
par NetworkTopology.cloud.cloudGateway.ethg$o[3].channel typename "\"CoreBackboneChannel\""
par NetworkTopology.cloud.cloudGateway.ethg$o[3].channel disabled false
attr mutable ""
par NetworkTopology.cloud.cloudGateway.ethg$o[3].channel delay 0.002s
attr mutable ""
attr unit s
par NetworkTopology.cloud.cloudGateway.ethg$o[3].channel datarate 1e+10bps
attr mutable ""
attr unit bps
par NetworkTopology.cloud.cloudGateway.ethg$o[3].channel ber 1e-09
attr mutable ""
par NetworkTopology.cloud.cloudGateway.ethg$o[3].channel per 0
attr mutable ""
par NetworkTopology.cloud.cloudGateway.ethg$o[3].channel displayAsTooltip false
par NetworkTopology.cloud.cloudGateway.ethg$o[3].channel thruputDisplayFormat "\"u\""
par NetworkTopology.cloud.gameServer.ethg$o[0].channel typename "\"CoreBackboneChannel\""
par NetworkTopology.cloud.gameServer.ethg$o[0].channel disabled false
attr mutable ""
par NetworkTopology.cloud.gameServer.ethg$o[0].channel delay 0.002s
attr mutable ""
attr unit s
par NetworkTopology.cloud.gameServer.ethg$o[0].channel datarate 1e+10bps
attr mutable ""
attr unit bps
par NetworkTopology.cloud.gameServer.ethg$o[0].channel ber 1e-09
attr mutable ""
par NetworkTopology.cloud.gameServer.ethg$o[0].channel per 0
attr mutable ""
par NetworkTopology.cloud.gameServer.ethg$o[0].channel displayAsTooltip false
par NetworkTopology.cloud.gameServer.ethg$o[0].channel thruputDisplayFormat "\"u\""
par NetworkTopology.cloud.cloudGateway.ethg$o[4].channel typename "\"CoreBackboneChannel\""
par NetworkTopology.cloud.cloudGateway.ethg$o[4].channel disabled false
attr mutable ""
par NetworkTopology.cloud.cloudGateway.ethg$o[4].channel delay 0.002s
attr mutable ""
attr unit s
par NetworkTopology.cloud.cloudGateway.ethg$o[4].channel datarate 1e+10bps
attr mutable ""
attr unit bps
par NetworkTopology.cloud.cloudGateway.ethg$o[4].channel ber 1e-09
attr mutable ""
par NetworkTopology.cloud.cloudGateway.ethg$o[4].channel per 0
attr mutable ""
par NetworkTopology.cloud.cloudGateway.ethg$o[4].channel displayAsTooltip false
par NetworkTopology.cloud.cloudGateway.ethg$o[4].channel thruputDisplayFormat "\"u\""
par NetworkTopology.cloud.cloudGateway.ethg$i[0].channel typename "\"ned.IdealChannel\""
par NetworkTopology.cloud.cloudGateway.eth[0].phys$o.channel typename "\"ned.IdealChannel\""
par NetworkTopology.cloud.cloudGateway.ethg$i[1].channel typename "\"ned.IdealChannel\""
par NetworkTopology.cloud.cloudGateway.eth[1].phys$o.channel typename "\"ned.IdealChannel\""
par NetworkTopology.cloud.cloudGateway.ethg$i[2].channel typename "\"ned.IdealChannel\""
par NetworkTopology.cloud.cloudGateway.eth[2].phys$o.channel typename "\"ned.IdealChannel\""
par NetworkTopology.cloud.cloudGateway.ethg$i[3].channel typename "\"ned.IdealChannel\""
par NetworkTopology.cloud.cloudGateway.eth[3].phys$o.channel typename "\"ned.IdealChannel\""
par NetworkTopology.cloud.cloudGateway.ethg$i[4].channel typename "\"ned.IdealChannel\""
par NetworkTopology.cloud.cloudGateway.eth[4].phys$o.channel typename "\"ned.IdealChannel\""
par NetworkTopology.cloud.cloudGateway.ethg$i[5].channel typename "\"ned.IdealChannel\""
par NetworkTopology.cloud.cloudGateway.eth[5].phys$o.channel typename "\"ned.IdealChannel\""
par NetworkTopology.cloud.cloudGateway.interfaceTable typename "\"inet.networklayer.common.InterfaceTable\""
par NetworkTopology.cloud.cloudGateway.interfaceTable displayAddresses false
par NetworkTopology.cloud.cloudGateway.cb typename "\"inet.common.MessageDispatcher\""
par NetworkTopology.cloud.cloudGateway.cb displayStringTextFormat "\"processed %p pk (%l)\""
par NetworkTopology.cloud.cloudGateway.cb forwardServiceRegistration true
par NetworkTopology.cloud.cloudGateway.cb forwardProtocolRegistration true
par NetworkTopology.cloud.cloudGateway.bl typename "\"inet.common.MessageDispatcher\""
par NetworkTopology.cloud.cloudGateway.bl displayStringTextFormat "\"processed %p pk (%l)\""
par NetworkTopology.cloud.cloudGateway.bl forwardServiceRegistration true
par NetworkTopology.cloud.cloudGateway.bl forwardProtocolRegistration true
par NetworkTopology.cloud.cloudGateway.ethernet typename "\"inet.linklayer.ethernet.basic.EthernetEncapsulation\""
par NetworkTopology.cloud.cloudGateway.ethernet registerProtocol true
par NetworkTopology.cloud.cloudGateway.ethernet interfaceTableModule "\"NetworkTopology.cloud.cloudGateway.interfaceTable\""
par NetworkTopology.cloud.cloudGateway.ethernet fcsMode "\"declared\""
attr enum declared,computed
par NetworkTopology.cloud.cloudGateway.ethernet stopOperationExtraTime -1s
attr unit s
par NetworkTopology.cloud.cloudGateway.ethernet stopOperationTimeout 2s
attr unit s
par NetworkTopology.cloud.cloudGateway.li typename "\"inet.common.MessageDispatcher\""
par NetworkTopology.cloud.cloudGateway.li displayStringTextFormat "\"processed %p pk (%l)\""
par NetworkTopology.cloud.cloudGateway.li forwardServiceRegistration true
par NetworkTopology.cloud.cloudGateway.li forwardProtocolRegistration true
par NetworkTopology.cloud.cloudGateway.lo[0].upperLayerIn.channel typename "\"ned.IdealChannel\""
par NetworkTopology.cloud.cloudGateway.lo[0].lo.upperLayerOut.channel typename "\"ned.IdealChannel\""
par NetworkTopology.cloud.cloudGateway.lo[0].lo typename "\"inet.linklayer.loopback.Loopback\""
par NetworkTopology.cloud.cloudGateway.lo[0].lo interfaceTableModule "\"NetworkTopology.cloud.cloudGateway.interfaceTable\""
par NetworkTopology.cloud.cloudGateway.lo[0].lo mtu 4470B
attr unit B
par NetworkTopology.cloud.cloudGateway.lo[0] typename "\"inet.linklayer.loopback.LoopbackInterface\""
par NetworkTopology.cloud.cloudGateway.lo[0] displayStringTextFormat "\"%a (%i)\\n%m\""
par NetworkTopology.cloud.cloudGateway.lo[0] recordPcap false
par NetworkTopology.cloud.cloudGateway.lo[0] numPcapRecorders 0
par NetworkTopology.cloud.cloudGateway.lo[0] interfaceTableModule "\"NetworkTopology.cloud.cloudGateway.interfaceTable\""
par NetworkTopology.cloud.cloudGateway.eth[0].mac.phys$o.channel typename "\"ned.IdealChannel\""
par NetworkTopology.cloud.cloudGateway.eth[0].phys$i.channel typename "\"ned.IdealChannel\""
par NetworkTopology.cloud.cloudGateway.eth[0].upperLayerIn.channel typename "\"ned.IdealChannel\""
par NetworkTopology.cloud.cloudGateway.eth[0].mac.upperLayerOut.channel typename "\"ned.IdealChannel\""
par NetworkTopology.cloud.cloudGateway.eth[0].queue typename "\"inet.linklayer.ethernet.common.EthernetQueue\""
par NetworkTopology.cloud.cloudGateway.eth[0].queue displayStringTextFormat "\"contains %p pk (%l) pushed %u\\npulled %o removed %r dropped %d\""
par NetworkTopology.cloud.cloudGateway.eth[0].queue packetCapacity 1000
par NetworkTopology.cloud.cloudGateway.eth[0].queue dataCapacity -1b
attr unit b
par NetworkTopology.cloud.cloudGateway.eth[0].queue dropperClass "\"inet::queueing::PacketAtCollectionEndDropper\""
par NetworkTopology.cloud.cloudGateway.eth[0].queue comparatorClass "\"inet::EthernetFrameTypeComparator\""
par NetworkTopology.cloud.cloudGateway.eth[0].queue bufferModule "\"\""
par NetworkTopology.cloud.cloudGateway.eth[0].mac typename "\"inet.linklayer.ethernet.basic.EthernetMac\""
par NetworkTopology.cloud.cloudGateway.eth[0].mac interfaceTableModule "\"NetworkTopology.cloud.cloudGateway.interfaceTable\""
par NetworkTopology.cloud.cloudGateway.eth[0].mac displayStringTextFormat "\"rate: %b\\nsent: %s, rcvd: %r\\nqueue: %q, drop: %d\""
par NetworkTopology.cloud.cloudGateway.eth[0].mac sendRawBytes false
par NetworkTopology.cloud.cloudGateway.eth[0].mac promiscuous false
par NetworkTopology.cloud.cloudGateway.eth[0].mac duplexMode true
par NetworkTopology.cloud.cloudGateway.eth[0].mac mtu 1500B
attr unit B
par NetworkTopology.cloud.cloudGateway.eth[0].mac fcsMode "\"declared\""
attr enum declared,computed
par NetworkTopology.cloud.cloudGateway.eth[0].mac stopOperationExtraTime -1s
attr unit s
par NetworkTopology.cloud.cloudGateway.eth[0].mac stopOperationTimeout 2s
attr unit s
par NetworkTopology.cloud.cloudGateway.eth[0] typename "\"inet.linklayer.ethernet.EthernetInterface\""
par NetworkTopology.cloud.cloudGateway.eth[0] displayStringTextFormat "\"%a (%i)\\n%m\""
par NetworkTopology.cloud.cloudGateway.eth[0] recordPcap false
par NetworkTopology.cloud.cloudGateway.eth[0] numPcapRecorders 0
par NetworkTopology.cloud.cloudGateway.eth[0] interfaceTableModule "\"NetworkTopology.cloud.cloudGateway.interfaceTable\""
par NetworkTopology.cloud.cloudGateway.eth[0] protocol "\"ethernetmac\""
par NetworkTopology.cloud.cloudGateway.eth[0] address "\"0A-AA-00-00-00-01\""
attr mutable ""
par NetworkTopology.cloud.cloudGateway.eth[0] duplexMode true
par NetworkTopology.cloud.cloudGateway.eth[0] csmacdSupport false
par NetworkTopology.cloud.cloudGateway.eth[0] bitrate 0bps
attr unit bps
par NetworkTopology.cloud.cloudGateway.eth[0] fcsMode "\"declared\""
attr enum declared,computed
par NetworkTopology.cloud.cloudGateway.eth[1].mac.phys$o.channel typename "\"ned.IdealChannel\""
par NetworkTopology.cloud.cloudGateway.eth[1].phys$i.channel typename "\"ned.IdealChannel\""
par NetworkTopology.cloud.cloudGateway.eth[1].upperLayerIn.channel typename "\"ned.IdealChannel\""
par NetworkTopology.cloud.cloudGateway.eth[1].mac.upperLayerOut.channel typename "\"ned.IdealChannel\""
par NetworkTopology.cloud.cloudGateway.eth[1].queue typename "\"inet.linklayer.ethernet.common.EthernetQueue\""
par NetworkTopology.cloud.cloudGateway.eth[1].queue displayStringTextFormat "\"contains %p pk (%l) pushed %u\\npulled %o removed %r dropped %d\""
par NetworkTopology.cloud.cloudGateway.eth[1].queue packetCapacity 1000
par NetworkTopology.cloud.cloudGateway.eth[1].queue dataCapacity -1b
attr unit b
par NetworkTopology.cloud.cloudGateway.eth[1].queue dropperClass "\"inet::queueing::PacketAtCollectionEndDropper\""
par NetworkTopology.cloud.cloudGateway.eth[1].queue comparatorClass "\"inet::EthernetFrameTypeComparator\""
par NetworkTopology.cloud.cloudGateway.eth[1].queue bufferModule "\"\""
par NetworkTopology.cloud.cloudGateway.eth[1].mac typename "\"inet.linklayer.ethernet.basic.EthernetMac\""
par NetworkTopology.cloud.cloudGateway.eth[1].mac interfaceTableModule "\"NetworkTopology.cloud.cloudGateway.interfaceTable\""
par NetworkTopology.cloud.cloudGateway.eth[1].mac displayStringTextFormat "\"rate: %b\\nsent: %s, rcvd: %r\\nqueue: %q, drop: %d\""
par NetworkTopology.cloud.cloudGateway.eth[1].mac sendRawBytes false
par NetworkTopology.cloud.cloudGateway.eth[1].mac promiscuous false
par NetworkTopology.cloud.cloudGateway.eth[1].mac duplexMode true
par NetworkTopology.cloud.cloudGateway.eth[1].mac mtu 1500B
attr unit B
par NetworkTopology.cloud.cloudGateway.eth[1].mac fcsMode "\"declared\""
attr enum declared,computed
par NetworkTopology.cloud.cloudGateway.eth[1].mac stopOperationExtraTime -1s
attr unit s
par NetworkTopology.cloud.cloudGateway.eth[1].mac stopOperationTimeout 2s
attr unit s
par NetworkTopology.cloud.cloudGateway.eth[1] typename "\"inet.linklayer.ethernet.EthernetInterface\""
par NetworkTopology.cloud.cloudGateway.eth[1] displayStringTextFormat "\"%a (%i)\\n%m\""
par NetworkTopology.cloud.cloudGateway.eth[1] recordPcap false
par NetworkTopology.cloud.cloudGateway.eth[1] numPcapRecorders 0
par NetworkTopology.cloud.cloudGateway.eth[1] interfaceTableModule "\"NetworkTopology.cloud.cloudGateway.interfaceTable\""
par NetworkTopology.cloud.cloudGateway.eth[1] protocol "\"ethernetmac\""
par NetworkTopology.cloud.cloudGateway.eth[1] address "\"0A-AA-00-00-00-02\""
attr mutable ""
par NetworkTopology.cloud.cloudGateway.eth[1] duplexMode true
par NetworkTopology.cloud.cloudGateway.eth[1] csmacdSupport false
par NetworkTopology.cloud.cloudGateway.eth[1] bitrate 0bps
attr unit bps
par NetworkTopology.cloud.cloudGateway.eth[1] fcsMode "\"declared\""
attr enum declared,computed
par NetworkTopology.cloud.cloudGateway.eth[2].mac.phys$o.channel typename "\"ned.IdealChannel\""
par NetworkTopology.cloud.cloudGateway.eth[2].phys$i.channel typename "\"ned.IdealChannel\""
par NetworkTopology.cloud.cloudGateway.eth[2].upperLayerIn.channel typename "\"ned.IdealChannel\""
par NetworkTopology.cloud.cloudGateway.eth[2].mac.upperLayerOut.channel typename "\"ned.IdealChannel\""
par NetworkTopology.cloud.cloudGateway.eth[2].queue typename "\"inet.linklayer.ethernet.common.EthernetQueue\""
par NetworkTopology.cloud.cloudGateway.eth[2].queue displayStringTextFormat "\"contains %p pk (%l) pushed %u\\npulled %o removed %r dropped %d\""
par NetworkTopology.cloud.cloudGateway.eth[2].queue packetCapacity 1000
par NetworkTopology.cloud.cloudGateway.eth[2].queue dataCapacity -1b
attr unit b
par NetworkTopology.cloud.cloudGateway.eth[2].queue dropperClass "\"inet::queueing::PacketAtCollectionEndDropper\""
par NetworkTopology.cloud.cloudGateway.eth[2].queue comparatorClass "\"inet::EthernetFrameTypeComparator\""
par NetworkTopology.cloud.cloudGateway.eth[2].queue bufferModule "\"\""
par NetworkTopology.cloud.cloudGateway.eth[2].mac typename "\"inet.linklayer.ethernet.basic.EthernetMac\""
par NetworkTopology.cloud.cloudGateway.eth[2].mac interfaceTableModule "\"NetworkTopology.cloud.cloudGateway.interfaceTable\""
par NetworkTopology.cloud.cloudGateway.eth[2].mac displayStringTextFormat "\"rate: %b\\nsent: %s, rcvd: %r\\nqueue: %q, drop: %d\""
par NetworkTopology.cloud.cloudGateway.eth[2].mac sendRawBytes false
par NetworkTopology.cloud.cloudGateway.eth[2].mac promiscuous false
par NetworkTopology.cloud.cloudGateway.eth[2].mac duplexMode true
par NetworkTopology.cloud.cloudGateway.eth[2].mac mtu 1500B
attr unit B
par NetworkTopology.cloud.cloudGateway.eth[2].mac fcsMode "\"declared\""
attr enum declared,computed
par NetworkTopology.cloud.cloudGateway.eth[2].mac stopOperationExtraTime -1s
attr unit s
par NetworkTopology.cloud.cloudGateway.eth[2].mac stopOperationTimeout 2s
attr unit s
par NetworkTopology.cloud.cloudGateway.eth[2] typename "\"inet.linklayer.ethernet.EthernetInterface\""
par NetworkTopology.cloud.cloudGateway.eth[2] displayStringTextFormat "\"%a (%i)\\n%m\""
par NetworkTopology.cloud.cloudGateway.eth[2] recordPcap false
par NetworkTopology.cloud.cloudGateway.eth[2] numPcapRecorders 0
par NetworkTopology.cloud.cloudGateway.eth[2] interfaceTableModule "\"NetworkTopology.cloud.cloudGateway.interfaceTable\""
par NetworkTopology.cloud.cloudGateway.eth[2] protocol "\"ethernetmac\""
par NetworkTopology.cloud.cloudGateway.eth[2] address "\"0A-AA-00-00-00-03\""
attr mutable ""
par NetworkTopology.cloud.cloudGateway.eth[2] duplexMode true
par NetworkTopology.cloud.cloudGateway.eth[2] csmacdSupport false
par NetworkTopology.cloud.cloudGateway.eth[2] bitrate 0bps
attr unit bps
par NetworkTopology.cloud.cloudGateway.eth[2] fcsMode "\"declared\""
attr enum declared,computed
par NetworkTopology.cloud.cloudGateway.eth[3].mac.phys$o.channel typename "\"ned.IdealChannel\""
par NetworkTopology.cloud.cloudGateway.eth[3].phys$i.channel typename "\"ned.IdealChannel\""
par NetworkTopology.cloud.cloudGateway.eth[3].upperLayerIn.channel typename "\"ned.IdealChannel\""
par NetworkTopology.cloud.cloudGateway.eth[3].mac.upperLayerOut.channel typename "\"ned.IdealChannel\""
par NetworkTopology.cloud.cloudGateway.eth[3].queue typename "\"inet.linklayer.ethernet.common.EthernetQueue\""
par NetworkTopology.cloud.cloudGateway.eth[3].queue displayStringTextFormat "\"contains %p pk (%l) pushed %u\\npulled %o removed %r dropped %d\""
par NetworkTopology.cloud.cloudGateway.eth[3].queue packetCapacity 1000
par NetworkTopology.cloud.cloudGateway.eth[3].queue dataCapacity -1b
attr unit b
par NetworkTopology.cloud.cloudGateway.eth[3].queue dropperClass "\"inet::queueing::PacketAtCollectionEndDropper\""
par NetworkTopology.cloud.cloudGateway.eth[3].queue comparatorClass "\"inet::EthernetFrameTypeComparator\""
par NetworkTopology.cloud.cloudGateway.eth[3].queue bufferModule "\"\""
par NetworkTopology.cloud.cloudGateway.eth[3].mac typename "\"inet.linklayer.ethernet.basic.EthernetMac\""
par NetworkTopology.cloud.cloudGateway.eth[3].mac interfaceTableModule "\"NetworkTopology.cloud.cloudGateway.interfaceTable\""
par NetworkTopology.cloud.cloudGateway.eth[3].mac displayStringTextFormat "\"rate: %b\\nsent: %s, rcvd: %r\\nqueue: %q, drop: %d\""
par NetworkTopology.cloud.cloudGateway.eth[3].mac sendRawBytes false
par NetworkTopology.cloud.cloudGateway.eth[3].mac promiscuous false
par NetworkTopology.cloud.cloudGateway.eth[3].mac duplexMode true
par NetworkTopology.cloud.cloudGateway.eth[3].mac mtu 1500B
attr unit B
par NetworkTopology.cloud.cloudGateway.eth[3].mac fcsMode "\"declared\""
attr enum declared,computed
par NetworkTopology.cloud.cloudGateway.eth[3].mac stopOperationExtraTime -1s
attr unit s
par NetworkTopology.cloud.cloudGateway.eth[3].mac stopOperationTimeout 2s
attr unit s
par NetworkTopology.cloud.cloudGateway.eth[3] typename "\"inet.linklayer.ethernet.EthernetInterface\""
par NetworkTopology.cloud.cloudGateway.eth[3] displayStringTextFormat "\"%a (%i)\\n%m\""
par NetworkTopology.cloud.cloudGateway.eth[3] recordPcap false
par NetworkTopology.cloud.cloudGateway.eth[3] numPcapRecorders 0
par NetworkTopology.cloud.cloudGateway.eth[3] interfaceTableModule "\"NetworkTopology.cloud.cloudGateway.interfaceTable\""
par NetworkTopology.cloud.cloudGateway.eth[3] protocol "\"ethernetmac\""
par NetworkTopology.cloud.cloudGateway.eth[3] address "\"0A-AA-00-00-00-04\""
attr mutable ""
par NetworkTopology.cloud.cloudGateway.eth[3] duplexMode true
par NetworkTopology.cloud.cloudGateway.eth[3] csmacdSupport false
par NetworkTopology.cloud.cloudGateway.eth[3] bitrate 0bps
attr unit bps
par NetworkTopology.cloud.cloudGateway.eth[3] fcsMode "\"declared\""
attr enum declared,computed
par NetworkTopology.cloud.cloudGateway.eth[4].mac.phys$o.channel typename "\"ned.IdealChannel\""
par NetworkTopology.cloud.cloudGateway.eth[4].phys$i.channel typename "\"ned.IdealChannel\""
par NetworkTopology.cloud.cloudGateway.eth[4].upperLayerIn.channel typename "\"ned.IdealChannel\""
par NetworkTopology.cloud.cloudGateway.eth[4].mac.upperLayerOut.channel typename "\"ned.IdealChannel\""
par NetworkTopology.cloud.cloudGateway.eth[4].queue typename "\"inet.linklayer.ethernet.common.EthernetQueue\""
par NetworkTopology.cloud.cloudGateway.eth[4].queue displayStringTextFormat "\"contains %p pk (%l) pushed %u\\npulled %o removed %r dropped %d\""
par NetworkTopology.cloud.cloudGateway.eth[4].queue packetCapacity 1000
par NetworkTopology.cloud.cloudGateway.eth[4].queue dataCapacity -1b
attr unit b
par NetworkTopology.cloud.cloudGateway.eth[4].queue dropperClass "\"inet::queueing::PacketAtCollectionEndDropper\""
par NetworkTopology.cloud.cloudGateway.eth[4].queue comparatorClass "\"inet::EthernetFrameTypeComparator\""
par NetworkTopology.cloud.cloudGateway.eth[4].queue bufferModule "\"\""
par NetworkTopology.cloud.cloudGateway.eth[4].mac typename "\"inet.linklayer.ethernet.basic.EthernetMac\""
par NetworkTopology.cloud.cloudGateway.eth[4].mac interfaceTableModule "\"NetworkTopology.cloud.cloudGateway.interfaceTable\""
par NetworkTopology.cloud.cloudGateway.eth[4].mac displayStringTextFormat "\"rate: %b\\nsent: %s, rcvd: %r\\nqueue: %q, drop: %d\""
par NetworkTopology.cloud.cloudGateway.eth[4].mac sendRawBytes false
par NetworkTopology.cloud.cloudGateway.eth[4].mac promiscuous false
par NetworkTopology.cloud.cloudGateway.eth[4].mac duplexMode true
par NetworkTopology.cloud.cloudGateway.eth[4].mac mtu 1500B
attr unit B
par NetworkTopology.cloud.cloudGateway.eth[4].mac fcsMode "\"declared\""
attr enum declared,computed
par NetworkTopology.cloud.cloudGateway.eth[4].mac stopOperationExtraTime -1s
attr unit s
par NetworkTopology.cloud.cloudGateway.eth[4].mac stopOperationTimeout 2s
attr unit s
par NetworkTopology.cloud.cloudGateway.eth[4] typename "\"inet.linklayer.ethernet.EthernetInterface\""
par NetworkTopology.cloud.cloudGateway.eth[4] displayStringTextFormat "\"%a (%i)\\n%m\""
par NetworkTopology.cloud.cloudGateway.eth[4] recordPcap false
par NetworkTopology.cloud.cloudGateway.eth[4] numPcapRecorders 0
par NetworkTopology.cloud.cloudGateway.eth[4] interfaceTableModule "\"NetworkTopology.cloud.cloudGateway.interfaceTable\""
par NetworkTopology.cloud.cloudGateway.eth[4] protocol "\"ethernetmac\""
par NetworkTopology.cloud.cloudGateway.eth[4] address "\"0A-AA-00-00-00-05\""
attr mutable ""
par NetworkTopology.cloud.cloudGateway.eth[4] duplexMode true
par NetworkTopology.cloud.cloudGateway.eth[4] csmacdSupport false
par NetworkTopology.cloud.cloudGateway.eth[4] bitrate 0bps
attr unit bps
par NetworkTopology.cloud.cloudGateway.eth[4] fcsMode "\"declared\""
attr enum declared,computed
par NetworkTopology.cloud.cloudGateway.eth[5].mac.phys$o.channel typename "\"ned.IdealChannel\""
par NetworkTopology.cloud.cloudGateway.eth[5].phys$i.channel typename "\"ned.IdealChannel\""
par NetworkTopology.cloud.cloudGateway.eth[5].upperLayerIn.channel typename "\"ned.IdealChannel\""
par NetworkTopology.cloud.cloudGateway.eth[5].mac.upperLayerOut.channel typename "\"ned.IdealChannel\""
par NetworkTopology.cloud.cloudGateway.eth[5].queue typename "\"inet.linklayer.ethernet.common.EthernetQueue\""
par NetworkTopology.cloud.cloudGateway.eth[5].queue displayStringTextFormat "\"contains %p pk (%l) pushed %u\\npulled %o removed %r dropped %d\""
par NetworkTopology.cloud.cloudGateway.eth[5].queue packetCapacity 1000
par NetworkTopology.cloud.cloudGateway.eth[5].queue dataCapacity -1b
attr unit b
par NetworkTopology.cloud.cloudGateway.eth[5].queue dropperClass "\"inet::queueing::PacketAtCollectionEndDropper\""
par NetworkTopology.cloud.cloudGateway.eth[5].queue comparatorClass "\"inet::EthernetFrameTypeComparator\""
par NetworkTopology.cloud.cloudGateway.eth[5].queue bufferModule "\"\""
par NetworkTopology.cloud.cloudGateway.eth[5].mac typename "\"inet.linklayer.ethernet.basic.EthernetMac\""
par NetworkTopology.cloud.cloudGateway.eth[5].mac interfaceTableModule "\"NetworkTopology.cloud.cloudGateway.interfaceTable\""
par NetworkTopology.cloud.cloudGateway.eth[5].mac displayStringTextFormat "\"rate: %b\\nsent: %s, rcvd: %r\\nqueue: %q, drop: %d\""
par NetworkTopology.cloud.cloudGateway.eth[5].mac sendRawBytes false
par NetworkTopology.cloud.cloudGateway.eth[5].mac promiscuous false
par NetworkTopology.cloud.cloudGateway.eth[5].mac duplexMode true
par NetworkTopology.cloud.cloudGateway.eth[5].mac mtu 1500B
attr unit B
par NetworkTopology.cloud.cloudGateway.eth[5].mac fcsMode "\"declared\""
attr enum declared,computed
par NetworkTopology.cloud.cloudGateway.eth[5].mac stopOperationExtraTime -1s
attr unit s
par NetworkTopology.cloud.cloudGateway.eth[5].mac stopOperationTimeout 2s
attr unit s
par NetworkTopology.cloud.cloudGateway.eth[5] typename "\"inet.linklayer.ethernet.EthernetInterface\""
par NetworkTopology.cloud.cloudGateway.eth[5] displayStringTextFormat "\"%a (%i)\\n%m\""
par NetworkTopology.cloud.cloudGateway.eth[5] recordPcap false
par NetworkTopology.cloud.cloudGateway.eth[5] numPcapRecorders 0
par NetworkTopology.cloud.cloudGateway.eth[5] interfaceTableModule "\"NetworkTopology.cloud.cloudGateway.interfaceTable\""
par NetworkTopology.cloud.cloudGateway.eth[5] protocol "\"ethernetmac\""
par NetworkTopology.cloud.cloudGateway.eth[5] address "\"0A-AA-00-00-00-06\""
attr mutable ""
par NetworkTopology.cloud.cloudGateway.eth[5] duplexMode true
par NetworkTopology.cloud.cloudGateway.eth[5] csmacdSupport false
par NetworkTopology.cloud.cloudGateway.eth[5] bitrate 0bps
attr unit bps
par NetworkTopology.cloud.cloudGateway.eth[5] fcsMode "\"declared\""
attr enum declared,computed
par NetworkTopology.cloud.cloudGateway.ipv4.transportIn.channel typename "\"ned.IdealChannel\""
par NetworkTopology.cloud.cloudGateway.ipv4.up.out[0].channel typename "\"ned.IdealChannel\""
par NetworkTopology.cloud.cloudGateway.ipv4.lp.out[2].channel typename "\"ned.IdealChannel\""
par NetworkTopology.cloud.cloudGateway.ipv4.ifIn.channel typename "\"ned.IdealChannel\""
par NetworkTopology.cloud.cloudGateway.ipv4.configurator typename "\"inet.networklayer.configurator.ipv4.Ipv4NodeConfigurator\""
par NetworkTopology.cloud.cloudGateway.ipv4.configurator interfaceTableModule "\"NetworkTopology.cloud.cloudGateway.interfaceTable\""
par NetworkTopology.cloud.cloudGateway.ipv4.configurator routingTableModule "\"NetworkTopology.cloud.cloudGateway.ipv4.routingTable\""
par NetworkTopology.cloud.cloudGateway.ipv4.configurator networkConfiguratorModule "\"configurator\""
par NetworkTopology.cloud.cloudGateway.ipv4.configurator configureRoutingTable true
par NetworkTopology.cloud.cloudGateway.ipv4.routingTable typename "\"inet.networklayer.ipv4.Ipv4RoutingTable\""
par NetworkTopology.cloud.cloudGateway.ipv4.routingTable interfaceTableModule "\"NetworkTopology.cloud.cloudGateway.interfaceTable\""
par NetworkTopology.cloud.cloudGateway.ipv4.routingTable routerId "\"auto\""
par NetworkTopology.cloud.cloudGateway.ipv4.routingTable netmaskRoutes "\"*\""
par NetworkTopology.cloud.cloudGateway.ipv4.routingTable forwarding true
par NetworkTopology.cloud.cloudGateway.ipv4.routingTable multicastForwarding false
par NetworkTopology.cloud.cloudGateway.ipv4.routingTable useAdminDist false
par NetworkTopology.cloud.cloudGateway.ipv4.routingTable routingFile "\"\""
par NetworkTopology.cloud.cloudGateway.ipv4.natTable typename "\"inet.networklayer.ipv4.Ipv4NatTable\""
par NetworkTopology.cloud.cloudGateway.ipv4.natTable networkProtocolModule "\"^.ip\""
par NetworkTopology.cloud.cloudGateway.ipv4.natTable config "<config/> at content:1"
par NetworkTopology.cloud.cloudGateway.ipv4.up typename "\"inet.common.MessageDispatcher\""
par NetworkTopology.cloud.cloudGateway.ipv4.up displayStringTextFormat "\"processed %p pk (%l)\""
par NetworkTopology.cloud.cloudGateway.ipv4.up forwardServiceRegistration true
par NetworkTopology.cloud.cloudGateway.ipv4.up forwardProtocolRegistration true
par NetworkTopology.cloud.cloudGateway.ipv4.igmp typename "\"inet.networklayer.ipv4.Igmpv2\""
par NetworkTopology.cloud.cloudGateway.ipv4.igmp interfaceTableModule "\"NetworkTopology.cloud.cloudGateway.interfaceTable\""
par NetworkTopology.cloud.cloudGateway.ipv4.igmp routingTableModule "\"NetworkTopology.cloud.cloudGateway.ipv4.routingTable\""
par NetworkTopology.cloud.cloudGateway.ipv4.igmp crcMode "\"declared\""
attr enum declared,computed
par NetworkTopology.cloud.cloudGateway.ipv4.igmp enabled true
par NetworkTopology.cloud.cloudGateway.ipv4.igmp robustnessVariable 2
par NetworkTopology.cloud.cloudGateway.ipv4.igmp queryInterval 125s
attr unit s
par NetworkTopology.cloud.cloudGateway.ipv4.igmp queryResponseInterval 10s
attr unit s
par NetworkTopology.cloud.cloudGateway.ipv4.igmp groupMembershipInterval 260s
attr unit s
par NetworkTopology.cloud.cloudGateway.ipv4.igmp otherQuerierPresentInterval 255s
attr unit s
par NetworkTopology.cloud.cloudGateway.ipv4.igmp startupQueryInterval 31.25s
attr unit s
par NetworkTopology.cloud.cloudGateway.ipv4.igmp startupQueryCount 2
par NetworkTopology.cloud.cloudGateway.ipv4.igmp lastMemberQueryInterval 1s
attr unit s
par NetworkTopology.cloud.cloudGateway.ipv4.igmp lastMemberQueryCount 2
par NetworkTopology.cloud.cloudGateway.ipv4.igmp unsolicitedReportInterval 10s
attr unit s
par NetworkTopology.cloud.cloudGateway.ipv4.icmp typename "\"inet.networklayer.ipv4.Icmp\""
par NetworkTopology.cloud.cloudGateway.ipv4.icmp interfaceTableModule "\"NetworkTopology.cloud.cloudGateway.interfaceTable\""
par NetworkTopology.cloud.cloudGateway.ipv4.icmp routingTableModule "\"NetworkTopology.cloud.cloudGateway.ipv4.routingTable\""
par NetworkTopology.cloud.cloudGateway.ipv4.icmp crcMode "\"declared\""
attr enum declared,computed
attr mutable ""
par NetworkTopology.cloud.cloudGateway.ipv4.icmp quoteLength 8B
attr mutable ""
attr unit B
par NetworkTopology.cloud.cloudGateway.ipv4.mp typename "\"inet.common.MessageDispatcher\""
par NetworkTopology.cloud.cloudGateway.ipv4.mp displayStringTextFormat "\"processed %p pk (%l)\""
par NetworkTopology.cloud.cloudGateway.ipv4.mp forwardServiceRegistration true
par NetworkTopology.cloud.cloudGateway.ipv4.mp forwardProtocolRegistration true
par NetworkTopology.cloud.cloudGateway.ipv4.ip typename "\"inet.networklayer.ipv4.Ipv4\""
par NetworkTopology.cloud.cloudGateway.ipv4.ip interfaceTableModule "\"NetworkTopology.cloud.cloudGateway.interfaceTable\""
par NetworkTopology.cloud.cloudGateway.ipv4.ip routingTableModule "\"NetworkTopology.cloud.cloudGateway.ipv4.routingTable\""
par NetworkTopology.cloud.cloudGateway.ipv4.ip arpModule "\"NetworkTopology.cloud.cloudGateway.ipv4.arp\""
par NetworkTopology.cloud.cloudGateway.ipv4.ip icmpModule "\"NetworkTopology.cloud.cloudGateway.ipv4.icmp\""
par NetworkTopology.cloud.cloudGateway.ipv4.ip crcMode "\"declared\""
attr enum declared,computed
par NetworkTopology.cloud.cloudGateway.ipv4.ip timeToLive 32
par NetworkTopology.cloud.cloudGateway.ipv4.ip multicastTimeToLive 32
par NetworkTopology.cloud.cloudGateway.ipv4.ip fragmentTimeout 60s
attr unit s
par NetworkTopology.cloud.cloudGateway.ipv4.ip limitedBroadcast false
par NetworkTopology.cloud.cloudGateway.ipv4.ip directBroadcastInterfaces "\"\""
par NetworkTopology.cloud.cloudGateway.ipv4.arp typename "\"inet.networklayer.arp.ipv4.Arp\""
par NetworkTopology.cloud.cloudGateway.ipv4.arp interfaceTableModule "\"NetworkTopology.cloud.cloudGateway.interfaceTable\""
par NetworkTopology.cloud.cloudGateway.ipv4.arp routingTableModule "\"NetworkTopology.cloud.cloudGateway.ipv4.routingTable\""
par NetworkTopology.cloud.cloudGateway.ipv4.arp retryTimeout 1s
attr unit s
par NetworkTopology.cloud.cloudGateway.ipv4.arp retryCount 3
par NetworkTopology.cloud.cloudGateway.ipv4.arp cacheTimeout 120s
attr unit s
par NetworkTopology.cloud.cloudGateway.ipv4.arp proxyArpInterfaces "\"*\""
par NetworkTopology.cloud.cloudGateway.ipv4.lp typename "\"inet.common.MessageDispatcher\""
par NetworkTopology.cloud.cloudGateway.ipv4.lp displayStringTextFormat "\"processed %p pk (%l)\""
par NetworkTopology.cloud.cloudGateway.ipv4.lp forwardServiceRegistration true
par NetworkTopology.cloud.cloudGateway.ipv4.lp forwardProtocolRegistration true
par NetworkTopology.cloud.cloudGateway.ipv4 typename "\"inet.networklayer.ipv4.Ipv4NetworkLayer\""
par NetworkTopology.cloud.cloudGateway.ipv4 forwarding true
par NetworkTopology.cloud.cloudGateway.ipv4 multicastForwarding false
par NetworkTopology.cloud.cloudGateway.ipv4 interfaceTableModule "\"NetworkTopology.cloud.cloudGateway.interfaceTable\""
par NetworkTopology.cloud.cloudGateway.ipv4 displayStringTextFormat "\"%i\""
par NetworkTopology.cloud.cloudGateway.nl typename "\"inet.common.MessageDispatcher\""
par NetworkTopology.cloud.cloudGateway.nl displayStringTextFormat "\"processed %p pk (%l)\""
par NetworkTopology.cloud.cloudGateway.nl forwardServiceRegistration true
par NetworkTopology.cloud.cloudGateway.nl forwardProtocolRegistration true
par NetworkTopology.cloud.cloudGateway.tn typename "\"inet.common.MessageDispatcher\""
par NetworkTopology.cloud.cloudGateway.tn displayStringTextFormat "\"processed %p pk (%l)\""
par NetworkTopology.cloud.cloudGateway.tn forwardServiceRegistration true
par NetworkTopology.cloud.cloudGateway.tn forwardProtocolRegistration true
par NetworkTopology.cloud.cloudGateway.at typename "\"inet.common.MessageDispatcher\""
par NetworkTopology.cloud.cloudGateway.at displayStringTextFormat "\"processed %p pk (%l)\""
par NetworkTopology.cloud.cloudGateway.at forwardServiceRegistration true
par NetworkTopology.cloud.cloudGateway.at forwardProtocolRegistration true
par NetworkTopology.cloud.cloudGateway.ospf typename "\"inet.routing.ospfv2.Ospfv2\""
par NetworkTopology.cloud.cloudGateway.ospf interfaceTableModule "\"NetworkTopology.cloud.cloudGateway.interfaceTable\""
par NetworkTopology.cloud.cloudGateway.ospf routingTableModule "\"^.ipv4.routingTable\""
par NetworkTopology.cloud.cloudGateway.ospf crcMode "\"declared\""
attr enum declared,computed
par NetworkTopology.cloud.cloudGateway.ospf startupTime 0s
attr unit s
par NetworkTopology.cloud.cloudGateway.ospf ospfConfig "<OSPFASConfig>...</OSPFASConfig> at content:1"
par NetworkTopology.cloud.cloudGateway.ospf routerPriority 1
par NetworkTopology.cloud.cloudGateway.ospf areaID "\"0.0.0.0\""
par NetworkTopology.cloud.cloudGateway.ospf RFC1583Compatible false
par NetworkTopology.cloud.cloudGateway.ospf DistributeDefaultRoute false
par NetworkTopology.cloud.cloudGateway.ospf helloInterval 10s
attr unit s
par NetworkTopology.cloud.cloudGateway.ospf pollInterval 120s
attr unit s
par NetworkTopology.cloud.cloudGateway.ospf routerDeadInterval 40s
attr unit s
par NetworkTopology.cloud.cloudGateway.ospf retransmissionInterval 5s
attr unit s
par NetworkTopology.cloud.cloudGateway.ospf interfaceTransmissionDelay 1s
attr unit s
par NetworkTopology.cloud.cloudGateway.ospf interfaceMode "\"Active\""
attr enum Active,Passive,NoOSPF
par NetworkTopology.cloud.cloudGateway.ospf referenceBandwidth 100000000bps
attr unit bps
par NetworkTopology.cloud.cloudGateway.ospf interfaceOutputCost 0
par NetworkTopology.cloud.cloudGateway.ospf externalInterfaceOutputCost 1
par NetworkTopology.cloud.cloudGateway.ospf externalInterfaceOutputType "\"Type2\""
par NetworkTopology.cloud.cloudGateway.ospf forwardingAddress "\"0.0.0.0\""
par NetworkTopology.cloud.cloudGateway.ospf linkCost 1
par NetworkTopology.cloud.cloudGateway.ospf authenticationType "\"NullType\""
attr enum SimplePasswordType,CrytographicType,NullType
par NetworkTopology.cloud.cloudGateway.ospf authenticationKey "\"0x00\""
par NetworkTopology.cloud.cloudGateway typename "\"inet.node.ospfv2.OspfRouter\""
par NetworkTopology.cloud.cloudGateway hasStatus false
par NetworkTopology.cloud.cloudGateway osgModel "\"\""
par NetworkTopology.cloud.cloudGateway osgModelColor "\"\""
par NetworkTopology.cloud.cloudGateway canvasImage "\"\""
par NetworkTopology.cloud.cloudGateway canvasImageColor "\"\""
par NetworkTopology.cloud.cloudGateway recordPcap false
par NetworkTopology.cloud.cloudGateway numPcapRecorders 0
par NetworkTopology.cloud.cloudGateway numLoInterfaces 1
par NetworkTopology.cloud.cloudGateway numWlanInterfaces 0
par NetworkTopology.cloud.cloudGateway numEthInterfaces 0
par NetworkTopology.cloud.cloudGateway numPppInterfaces 0
par NetworkTopology.cloud.cloudGateway numTunInterfaces 0
par NetworkTopology.cloud.cloudGateway numVirtInterfaces 0
par NetworkTopology.cloud.cloudGateway fcsMode "\"declared\""
attr enum declared,computed
par NetworkTopology.cloud.cloudGateway hasIpv4 true
par NetworkTopology.cloud.cloudGateway hasIpv6 false
par NetworkTopology.cloud.cloudGateway hasGn false
par NetworkTopology.cloud.cloudGateway forwarding true
par NetworkTopology.cloud.cloudGateway multicastForwarding false
par NetworkTopology.cloud.cloudGateway hasUdp false
par NetworkTopology.cloud.cloudGateway hasTcp false
par NetworkTopology.cloud.cloudGateway hasSctp false
par NetworkTopology.cloud.cloudGateway numApps 0
par NetworkTopology.cloud.cloudGateway hasEigrp false
par NetworkTopology.cloud.cloudGateway hasOspf true
par NetworkTopology.cloud.cloudGateway hasRip false
par NetworkTopology.cloud.cloudGateway hasBgp false
par NetworkTopology.cloud.cloudGateway hasPim false
par NetworkTopology.cloud.cloudGateway hasDhcp false
par NetworkTopology.cloud.videoServer.ethg$i[0].channel typename "\"ned.IdealChannel\""
par NetworkTopology.cloud.videoServer.eth[0].phys$o.channel typename "\"ned.IdealChannel\""
par NetworkTopology.cloud.videoServer.interfaceTable typename "\"inet.networklayer.common.InterfaceTable\""
par NetworkTopology.cloud.videoServer.interfaceTable displayAddresses false
par NetworkTopology.cloud.videoServer.cb typename "\"inet.common.MessageDispatcher\""
par NetworkTopology.cloud.videoServer.cb displayStringTextFormat "\"processed %p pk (%l)\""
par NetworkTopology.cloud.videoServer.cb forwardServiceRegistration true
par NetworkTopology.cloud.videoServer.cb forwardProtocolRegistration true
par NetworkTopology.cloud.videoServer.bl typename "\"inet.common.MessageDispatcher\""
par NetworkTopology.cloud.videoServer.bl displayStringTextFormat "\"processed %p pk (%l)\""
par NetworkTopology.cloud.videoServer.bl forwardServiceRegistration true
par NetworkTopology.cloud.videoServer.bl forwardProtocolRegistration true
par NetworkTopology.cloud.videoServer.ethernet typename "\"inet.linklayer.ethernet.basic.EthernetEncapsulation\""
par NetworkTopology.cloud.videoServer.ethernet registerProtocol true
par NetworkTopology.cloud.videoServer.ethernet interfaceTableModule "\"NetworkTopology.cloud.videoServer.interfaceTable\""
par NetworkTopology.cloud.videoServer.ethernet fcsMode "\"declared\""
attr enum declared,computed
par NetworkTopology.cloud.videoServer.ethernet stopOperationExtraTime -1s
attr unit s
par NetworkTopology.cloud.videoServer.ethernet stopOperationTimeout 2s
attr unit s
par NetworkTopology.cloud.videoServer.li typename "\"inet.common.MessageDispatcher\""
par NetworkTopology.cloud.videoServer.li displayStringTextFormat "\"processed %p pk (%l)\""
par NetworkTopology.cloud.videoServer.li forwardServiceRegistration true
par NetworkTopology.cloud.videoServer.li forwardProtocolRegistration true
par NetworkTopology.cloud.videoServer.lo[0].upperLayerIn.channel typename "\"ned.IdealChannel\""
par NetworkTopology.cloud.videoServer.lo[0].lo.upperLayerOut.channel typename "\"ned.IdealChannel\""
par NetworkTopology.cloud.videoServer.lo[0].lo typename "\"inet.linklayer.loopback.Loopback\""
par NetworkTopology.cloud.videoServer.lo[0].lo interfaceTableModule "\"NetworkTopology.cloud.videoServer.interfaceTable\""
par NetworkTopology.cloud.videoServer.lo[0].lo mtu 4470B
attr unit B
par NetworkTopology.cloud.videoServer.lo[0] typename "\"inet.linklayer.loopback.LoopbackInterface\""
par NetworkTopology.cloud.videoServer.lo[0] displayStringTextFormat "\"%a (%i)\\n%m\""
par NetworkTopology.cloud.videoServer.lo[0] recordPcap false
par NetworkTopology.cloud.videoServer.lo[0] numPcapRecorders 0
par NetworkTopology.cloud.videoServer.lo[0] interfaceTableModule "\"NetworkTopology.cloud.videoServer.interfaceTable\""
par NetworkTopology.cloud.videoServer.eth[0].mac.phys$o.channel typename "\"ned.IdealChannel\""
par NetworkTopology.cloud.videoServer.eth[0].phys$i.channel typename "\"ned.IdealChannel\""
par NetworkTopology.cloud.videoServer.eth[0].upperLayerIn.channel typename "\"ned.IdealChannel\""
par NetworkTopology.cloud.videoServer.eth[0].mac.upperLayerOut.channel typename "\"ned.IdealChannel\""
par NetworkTopology.cloud.videoServer.eth[0].queue typename "\"inet.linklayer.ethernet.common.EthernetQueue\""
par NetworkTopology.cloud.videoServer.eth[0].queue displayStringTextFormat "\"contains %p pk (%l) pushed %u\\npulled %o removed %r dropped %d\""
par NetworkTopology.cloud.videoServer.eth[0].queue packetCapacity 1000
par NetworkTopology.cloud.videoServer.eth[0].queue dataCapacity -1b
attr unit b
par NetworkTopology.cloud.videoServer.eth[0].queue dropperClass "\"inet::queueing::PacketAtCollectionEndDropper\""
par NetworkTopology.cloud.videoServer.eth[0].queue comparatorClass "\"inet::EthernetFrameTypeComparator\""
par NetworkTopology.cloud.videoServer.eth[0].queue bufferModule "\"\""
par NetworkTopology.cloud.videoServer.eth[0].mac typename "\"inet.linklayer.ethernet.basic.EthernetMac\""
par NetworkTopology.cloud.videoServer.eth[0].mac interfaceTableModule "\"NetworkTopology.cloud.videoServer.interfaceTable\""
par NetworkTopology.cloud.videoServer.eth[0].mac displayStringTextFormat "\"rate: %b\\nsent: %s, rcvd: %r\\nqueue: %q, drop: %d\""
par NetworkTopology.cloud.videoServer.eth[0].mac sendRawBytes false
par NetworkTopology.cloud.videoServer.eth[0].mac promiscuous false
par NetworkTopology.cloud.videoServer.eth[0].mac duplexMode true
par NetworkTopology.cloud.videoServer.eth[0].mac mtu 1500B
attr unit B
par NetworkTopology.cloud.videoServer.eth[0].mac fcsMode "\"declared\""
attr enum declared,computed
par NetworkTopology.cloud.videoServer.eth[0].mac stopOperationExtraTime -1s
attr unit s
par NetworkTopology.cloud.videoServer.eth[0].mac stopOperationTimeout 2s
attr unit s
par NetworkTopology.cloud.videoServer.eth[0] typename "\"inet.linklayer.ethernet.EthernetInterface\""
par NetworkTopology.cloud.videoServer.eth[0] displayStringTextFormat "\"%a (%i)\\n%m\""
par NetworkTopology.cloud.videoServer.eth[0] recordPcap false
[...]
par NetworkTopology.isp_private0.private.attacker.ipv4.up forwardServiceRegistration true
par NetworkTopology.isp_private0.private.attacker.ipv4.up forwardProtocolRegistration true
par NetworkTopology.isp_private0.private.attacker.ipv4.igmp typename "\"inet.networklayer.ipv4.Igmpv2\""
par NetworkTopology.isp_private0.private.attacker.ipv4.igmp interfaceTableModule "\"NetworkTopology.isp_private0.private.attacker.interfaceTable\""
par NetworkTopology.isp_private0.private.attacker.ipv4.igmp routingTableModule "\"NetworkTopology.isp_private0.private.attacker.ipv4.routingTable\""
par NetworkTopology.isp_private0.private.attacker.ipv4.igmp crcMode "\"declared\""
attr enum declared,computed
par NetworkTopology.isp_private0.private.attacker.ipv4.igmp enabled true
par NetworkTopology.isp_private0.private.attacker.ipv4.igmp robustnessVariable 2
par NetworkTopology.isp_private0.private.attacker.ipv4.igmp queryInterval 125s
attr unit s
par NetworkTopology.isp_private0.private.attacker.ipv4.igmp queryResponseInterval 10s
attr unit s
par NetworkTopology.isp_private0.private.attacker.ipv4.igmp groupMembershipInterval 260s
attr unit s
par NetworkTopology.isp_private0.private.attacker.ipv4.igmp otherQuerierPresentInterval 255s
attr unit s
par NetworkTopology.isp_private0.private.attacker.ipv4.igmp startupQueryInterval 31.25s
attr unit s
par NetworkTopology.isp_private0.private.attacker.ipv4.igmp startupQueryCount 2
par NetworkTopology.isp_private0.private.attacker.ipv4.igmp lastMemberQueryInterval 1s
attr unit s
par NetworkTopology.isp_private0.private.attacker.ipv4.igmp lastMemberQueryCount 2
par NetworkTopology.isp_private0.private.attacker.ipv4.igmp unsolicitedReportInterval 10s
attr unit s
par NetworkTopology.isp_private0.private.attacker.ipv4.icmp typename "\"inet.networklayer.ipv4.Icmp\""
par NetworkTopology.isp_private0.private.attacker.ipv4.icmp interfaceTableModule "\"NetworkTopology.isp_private0.private.attacker.interfaceTable\""
par NetworkTopology.isp_private0.private.attacker.ipv4.icmp routingTableModule "\"NetworkTopology.isp_private0.private.attacker.ipv4.routingTable\""
par NetworkTopology.isp_private0.private.attacker.ipv4.icmp crcMode "\"declared\""
attr enum declared,computed
attr mutable ""
par NetworkTopology.isp_private0.private.attacker.ipv4.icmp quoteLength 8B
attr mutable ""
attr unit B
par NetworkTopology.isp_private0.private.attacker.ipv4.mp typename "\"inet.common.MessageDispatcher\""
par NetworkTopology.isp_private0.private.attacker.ipv4.mp displayStringTextFormat "\"processed %p pk (%l)\""
par NetworkTopology.isp_private0.private.attacker.ipv4.mp forwardServiceRegistration true
par NetworkTopology.isp_private0.private.attacker.ipv4.mp forwardProtocolRegistration true
par NetworkTopology.isp_private0.private.attacker.ipv4.ip typename "\"inet.networklayer.ipv4.Ipv4\""
par NetworkTopology.isp_private0.private.attacker.ipv4.ip interfaceTableModule "\"NetworkTopology.isp_private0.private.attacker.interfaceTable\""
par NetworkTopology.isp_private0.private.attacker.ipv4.ip routingTableModule "\"NetworkTopology.isp_private0.private.attacker.ipv4.routingTable\""
par NetworkTopology.isp_private0.private.attacker.ipv4.ip arpModule "\"NetworkTopology.isp_private0.private.attacker.ipv4.arp\""
par NetworkTopology.isp_private0.private.attacker.ipv4.ip icmpModule "\"NetworkTopology.isp_private0.private.attacker.ipv4.icmp\""
par NetworkTopology.isp_private0.private.attacker.ipv4.ip crcMode "\"declared\""
attr enum declared,computed
par NetworkTopology.isp_private0.private.attacker.ipv4.ip timeToLive 32
par NetworkTopology.isp_private0.private.attacker.ipv4.ip multicastTimeToLive 32
par NetworkTopology.isp_private0.private.attacker.ipv4.ip fragmentTimeout 60s
attr unit s
par NetworkTopology.isp_private0.private.attacker.ipv4.ip limitedBroadcast false
par NetworkTopology.isp_private0.private.attacker.ipv4.ip directBroadcastInterfaces "\"\""
par NetworkTopology.isp_private0.private.attacker.ipv4.arp typename "\"inet.networklayer.arp.ipv4.Arp\""
par NetworkTopology.isp_private0.private.attacker.ipv4.arp interfaceTableModule "\"NetworkTopology.isp_private0.private.attacker.interfaceTable\""
par NetworkTopology.isp_private0.private.attacker.ipv4.arp routingTableModule "\"NetworkTopology.isp_private0.private.attacker.ipv4.routingTable\""
par NetworkTopology.isp_private0.private.attacker.ipv4.arp retryTimeout 1s
attr unit s
par NetworkTopology.isp_private0.private.attacker.ipv4.arp retryCount 3
par NetworkTopology.isp_private0.private.attacker.ipv4.arp cacheTimeout 120s
attr unit s
par NetworkTopology.isp_private0.private.attacker.ipv4.arp proxyArpInterfaces "\"\""
par NetworkTopology.isp_private0.private.attacker.ipv4.lp typename "\"inet.common.MessageDispatcher\""
par NetworkTopology.isp_private0.private.attacker.ipv4.lp displayStringTextFormat "\"processed %p pk (%l)\""
par NetworkTopology.isp_private0.private.attacker.ipv4.lp forwardServiceRegistration true
par NetworkTopology.isp_private0.private.attacker.ipv4.lp forwardProtocolRegistration true
par NetworkTopology.isp_private0.private.attacker.ipv4 typename "\"inet.networklayer.ipv4.Ipv4NetworkLayer\""
par NetworkTopology.isp_private0.private.attacker.ipv4 forwarding false
par NetworkTopology.isp_private0.private.attacker.ipv4 multicastForwarding false
par NetworkTopology.isp_private0.private.attacker.ipv4 interfaceTableModule "\"NetworkTopology.isp_private0.private.attacker.interfaceTable\""
par NetworkTopology.isp_private0.private.attacker.ipv4 displayStringTextFormat "\"%i\""
par NetworkTopology.isp_private0.private.attacker.nl typename "\"inet.common.MessageDispatcher\""
par NetworkTopology.isp_private0.private.attacker.nl displayStringTextFormat "\"processed %p pk (%l)\""
par NetworkTopology.isp_private0.private.attacker.nl forwardServiceRegistration true
par NetworkTopology.isp_private0.private.attacker.nl forwardProtocolRegistration true
par NetworkTopology.isp_private0.private.attacker.udp typename "\"inet.transportlayer.udp.Udp\""
par NetworkTopology.isp_private0.private.attacker.udp interfaceTableModule "\"NetworkTopology.isp_private0.private.attacker.interfaceTable\""
par NetworkTopology.isp_private0.private.attacker.udp icmpModule "\"^.ipv4.icmp\""
par NetworkTopology.isp_private0.private.attacker.udp icmpv6Module "\"^.ipv6.icmpv6\""
par NetworkTopology.isp_private0.private.attacker.udp crcMode "\"declared\""
attr enum disabled,declared,computed
par NetworkTopology.isp_private0.private.attacker.udp defaultMulticastLoop true
par NetworkTopology.isp_private0.private.attacker.tcp typename "\"inet.transportlayer.tcp.Tcp\""
par NetworkTopology.isp_private0.private.attacker.tcp crcMode "\"declared\""
attr enum declared,computed
par NetworkTopology.isp_private0.private.attacker.tcp advertisedWindow 7504
par NetworkTopology.isp_private0.private.attacker.tcp delayedAcksEnabled false
par NetworkTopology.isp_private0.private.attacker.tcp nagleEnabled true
par NetworkTopology.isp_private0.private.attacker.tcp limitedTransmitEnabled false
par NetworkTopology.isp_private0.private.attacker.tcp increasedIWEnabled false
par NetworkTopology.isp_private0.private.attacker.tcp sackSupport false
par NetworkTopology.isp_private0.private.attacker.tcp windowScalingSupport false
par NetworkTopology.isp_private0.private.attacker.tcp windowScalingFactor -1
par NetworkTopology.isp_private0.private.attacker.tcp timestampSupport false
par NetworkTopology.isp_private0.private.attacker.tcp mss 536
par NetworkTopology.isp_private0.private.attacker.tcp msl 120s
attr unit s
par NetworkTopology.isp_private0.private.attacker.tcp tcpAlgorithmClass "\"TcpReno\""
par NetworkTopology.isp_private0.private.attacker.tcp useDataNotification false
par NetworkTopology.isp_private0.private.attacker.tcp dupthresh 3
par NetworkTopology.isp_private0.private.attacker.tcp initialSsthresh 4294967295
par NetworkTopology.isp_private0.private.attacker.tcp stopOperationExtraTime 0s
attr unit s
par NetworkTopology.isp_private0.private.attacker.tcp stopOperationTimeout 2s
attr unit s
par NetworkTopology.isp_private0.private.attacker.tcp ecnWillingness false
par NetworkTopology.isp_private0.private.attacker.tcp dctcpGamma 0.0625
par NetworkTopology.isp_private0.private.attacker.tn typename "\"inet.common.MessageDispatcher\""
par NetworkTopology.isp_private0.private.attacker.tn displayStringTextFormat "\"processed %p pk (%l)\""
par NetworkTopology.isp_private0.private.attacker.tn forwardServiceRegistration true
par NetworkTopology.isp_private0.private.attacker.tn forwardProtocolRegistration true
par NetworkTopology.isp_private0.private.attacker.app[0] typename "\"inet.applications.udpapp.UdpBasicApp\""
par NetworkTopology.isp_private0.private.attacker.app[0] interfaceTableModule "\"NetworkTopology.isp_private0.private.attacker.interfaceTable\""
par NetworkTopology.isp_private0.private.attacker.app[0] clockModule "\"\""
par NetworkTopology.isp_private0.private.attacker.app[0] localPort -1
par NetworkTopology.isp_private0.private.attacker.app[0] destAddresses "\"cloud.webServer\""
par NetworkTopology.isp_private0.private.attacker.app[0] localAddress "\"\""
par NetworkTopology.isp_private0.private.attacker.app[0] packetName "\"UdpBasicAppData\""
par NetworkTopology.isp_private0.private.attacker.app[0] destPort 80
par NetworkTopology.isp_private0.private.attacker.app[0] messageLength 40B
attr unit B
par NetworkTopology.isp_private0.private.attacker.app[0] startTime 60s
attr unit s
par NetworkTopology.isp_private0.private.attacker.app[0] stopTime -1s
attr unit s
par NetworkTopology.isp_private0.private.attacker.app[0] sendInterval exponential(2ms)
attr unit s
par NetworkTopology.isp_private0.private.attacker.app[0] timeToLive -1
par NetworkTopology.isp_private0.private.attacker.app[0] dontFragment false
par NetworkTopology.isp_private0.private.attacker.app[0] dscp -1
par NetworkTopology.isp_private0.private.attacker.app[0] tos -1
par NetworkTopology.isp_private0.private.attacker.app[0] multicastInterface "\"\""
par NetworkTopology.isp_private0.private.attacker.app[0] receiveBroadcast false
par NetworkTopology.isp_private0.private.attacker.app[0] joinLocalMulticastGroups false
par NetworkTopology.isp_private0.private.attacker.app[0] stopOperationExtraTime -1s
attr unit s
par NetworkTopology.isp_private0.private.attacker.app[0] stopOperationTimeout 2s
attr unit s
par NetworkTopology.isp_private0.private.attacker.app[1] typename "\"inet.applications.udpapp.UdpBasicApp\""
par NetworkTopology.isp_private0.private.attacker.app[1] interfaceTableModule "\"NetworkTopology.isp_private0.private.attacker.interfaceTable\""
par NetworkTopology.isp_private0.private.attacker.app[1] clockModule "\"\""
par NetworkTopology.isp_private0.private.attacker.app[1] localPort -1
par NetworkTopology.isp_private0.private.attacker.app[1] destAddresses "\"cloud.videoServer\""
par NetworkTopology.isp_private0.private.attacker.app[1] localAddress "\"\""
par NetworkTopology.isp_private0.private.attacker.app[1] packetName "\"UdpBasicAppData\""
par NetworkTopology.isp_private0.private.attacker.app[1] destPort 443
par NetworkTopology.isp_private0.private.attacker.app[1] messageLength 40B
attr unit B
par NetworkTopology.isp_private0.private.attacker.app[1] startTime 60s
attr unit s
par NetworkTopology.isp_private0.private.attacker.app[1] stopTime -1s
attr unit s
par NetworkTopology.isp_private0.private.attacker.app[1] sendInterval exponential(3ms)
attr unit s
par NetworkTopology.isp_private0.private.attacker.app[1] timeToLive -1
par NetworkTopology.isp_private0.private.attacker.app[1] dontFragment false
par NetworkTopology.isp_private0.private.attacker.app[1] dscp -1
par NetworkTopology.isp_private0.private.attacker.app[1] tos -1
par NetworkTopology.isp_private0.private.attacker.app[1] multicastInterface "\"\""
par NetworkTopology.isp_private0.private.attacker.app[1] receiveBroadcast false
par NetworkTopology.isp_private0.private.attacker.app[1] joinLocalMulticastGroups false
par NetworkTopology.isp_private0.private.attacker.app[1] stopOperationExtraTime -1s
attr unit s
par NetworkTopology.isp_private0.private.attacker.app[1] stopOperationTimeout 2s
attr unit s
par NetworkTopology.isp_private0.private.attacker.app[2] typename "\"inet.applications.udpapp.UdpBasicApp\""
par NetworkTopology.isp_private0.private.attacker.app[2] interfaceTableModule "\"NetworkTopology.isp_private0.private.attacker.interfaceTable\""
par NetworkTopology.isp_private0.private.attacker.app[2] clockModule "\"\""
par NetworkTopology.isp_private0.private.attacker.app[2] localPort -1
par NetworkTopology.isp_private0.private.attacker.app[2] destAddresses "\"cloud.fileServer\""
par NetworkTopology.isp_private0.private.attacker.app[2] localAddress "\"\""
par NetworkTopology.isp_private0.private.attacker.app[2] packetName "\"UdpBasicAppData\""
par NetworkTopology.isp_private0.private.attacker.app[2] destPort 22
par NetworkTopology.isp_private0.private.attacker.app[2] messageLength 40B
attr unit B
par NetworkTopology.isp_private0.private.attacker.app[2] startTime 60s
attr unit s
par NetworkTopology.isp_private0.private.attacker.app[2] stopTime -1s
attr unit s
par NetworkTopology.isp_private0.private.attacker.app[2] sendInterval exponential(4ms)
attr unit s
par NetworkTopology.isp_private0.private.attacker.app[2] timeToLive -1
par NetworkTopology.isp_private0.private.attacker.app[2] dontFragment false
par NetworkTopology.isp_private0.private.attacker.app[2] dscp -1
par NetworkTopology.isp_private0.private.attacker.app[2] tos -1
par NetworkTopology.isp_private0.private.attacker.app[2] multicastInterface "\"\""
par NetworkTopology.isp_private0.private.attacker.app[2] receiveBroadcast false
par NetworkTopology.isp_private0.private.attacker.app[2] joinLocalMulticastGroups false
par NetworkTopology.isp_private0.private.attacker.app[2] stopOperationExtraTime -1s
attr unit s
par NetworkTopology.isp_private0.private.attacker.app[2] stopOperationTimeout 2s
attr unit s
par NetworkTopology.isp_private0.private.attacker.app[3] typename "\"inet.applications.udpapp.UdpBasicApp\""
par NetworkTopology.isp_private0.private.attacker.app[3] interfaceTableModule "\"NetworkTopology.isp_private0.private.attacker.interfaceTable\""
par NetworkTopology.isp_private0.private.attacker.app[3] clockModule "\"\""
par NetworkTopology.isp_private0.private.attacker.app[3] localPort -1
par NetworkTopology.isp_private0.private.attacker.app[3] destAddresses "\"cloud.gameServer\""
par NetworkTopology.isp_private0.private.attacker.app[3] localAddress "\"\""
par NetworkTopology.isp_private0.private.attacker.app[3] packetName "\"UdpBasicAppData\""
par NetworkTopology.isp_private0.private.attacker.app[3] destPort 3306
par NetworkTopology.isp_private0.private.attacker.app[3] messageLength 40B
attr unit B
par NetworkTopology.isp_private0.private.attacker.app[3] startTime 60s
attr unit s
par NetworkTopology.isp_private0.private.attacker.app[3] stopTime -1s
attr unit s
par NetworkTopology.isp_private0.private.attacker.app[3] sendInterval exponential(5ms)
attr unit s
par NetworkTopology.isp_private0.private.attacker.app[3] timeToLive -1
par NetworkTopology.isp_private0.private.attacker.app[3] dontFragment false
par NetworkTopology.isp_private0.private.attacker.app[3] dscp -1
par NetworkTopology.isp_private0.private.attacker.app[3] tos -1
par NetworkTopology.isp_private0.private.attacker.app[3] multicastInterface "\"\""
par NetworkTopology.isp_private0.private.attacker.app[3] receiveBroadcast false
par NetworkTopology.isp_private0.private.attacker.app[3] joinLocalMulticastGroups false
par NetworkTopology.isp_private0.private.attacker.app[3] stopOperationExtraTime -1s
attr unit s
par NetworkTopology.isp_private0.private.attacker.app[3] stopOperationTimeout 2s
attr unit s
par NetworkTopology.isp_private0.private.attacker.app[4] typename "\"inet.applications.udpapp.UdpBasicApp\""
par NetworkTopology.isp_private0.private.attacker.app[4] interfaceTableModule "\"NetworkTopology.isp_private0.private.attacker.interfaceTable\""
par NetworkTopology.isp_private0.private.attacker.app[4] clockModule "\"\""
par NetworkTopology.isp_private0.private.attacker.app[4] localPort -1
par NetworkTopology.isp_private0.private.attacker.app[4] destAddresses "\"cloud.voipServer\""
par NetworkTopology.isp_private0.private.attacker.app[4] localAddress "\"\""
par NetworkTopology.isp_private0.private.attacker.app[4] packetName "\"UdpBasicAppData\""
par NetworkTopology.isp_private0.private.attacker.app[4] destPort 8080
par NetworkTopology.isp_private0.private.attacker.app[4] messageLength 40B
attr unit B
par NetworkTopology.isp_private0.private.attacker.app[4] startTime 60s
attr unit s
par NetworkTopology.isp_private0.private.attacker.app[4] stopTime -1s
attr unit s
par NetworkTopology.isp_private0.private.attacker.app[4] sendInterval exponential(6ms)
attr unit s
par NetworkTopology.isp_private0.private.attacker.app[4] timeToLive -1
par NetworkTopology.isp_private0.private.attacker.app[4] dontFragment false
par NetworkTopology.isp_private0.private.attacker.app[4] dscp -1
par NetworkTopology.isp_private0.private.attacker.app[4] tos -1
par NetworkTopology.isp_private0.private.attacker.app[4] multicastInterface "\"\""
par NetworkTopology.isp_private0.private.attacker.app[4] receiveBroadcast false
par NetworkTopology.isp_private0.private.attacker.app[4] joinLocalMulticastGroups false
par NetworkTopology.isp_private0.private.attacker.app[4] stopOperationExtraTime -1s
attr unit s
par NetworkTopology.isp_private0.private.attacker.app[4] stopOperationTimeout 2s
attr unit s
par NetworkTopology.isp_private0.private.attacker.at typename "\"inet.common.MessageDispatcher\""
par NetworkTopology.isp_private0.private.attacker.at displayStringTextFormat "\"processed %p pk (%l)\""
par NetworkTopology.isp_private0.private.attacker.at forwardServiceRegistration true
par NetworkTopology.isp_private0.private.attacker.at forwardProtocolRegistration true
par NetworkTopology.isp_private0.private.attacker typename "\"inet.node.inet.StandardHost\""
par NetworkTopology.isp_private0.private.attacker hasStatus false
par NetworkTopology.isp_private0.private.attacker osgModel "\"\""
par NetworkTopology.isp_private0.private.attacker osgModelColor "\"\""
par NetworkTopology.isp_private0.private.attacker canvasImage "\"\""
par NetworkTopology.isp_private0.private.attacker canvasImageColor "\"\""
par NetworkTopology.isp_private0.private.attacker recordPcap false
par NetworkTopology.isp_private0.private.attacker numPcapRecorders 0
par NetworkTopology.isp_private0.private.attacker numLoInterfaces 1
par NetworkTopology.isp_private0.private.attacker numWlanInterfaces 0
par NetworkTopology.isp_private0.private.attacker numEthInterfaces 0
par NetworkTopology.isp_private0.private.attacker numPppInterfaces 0
par NetworkTopology.isp_private0.private.attacker numTunInterfaces 0
par NetworkTopology.isp_private0.private.attacker numVirtInterfaces 0
par NetworkTopology.isp_private0.private.attacker fcsMode "\"declared\""
attr enum declared,computed
par NetworkTopology.isp_private0.private.attacker hasIpv4 true
par NetworkTopology.isp_private0.private.attacker hasIpv6 false
par NetworkTopology.isp_private0.private.attacker hasGn false
par NetworkTopology.isp_private0.private.attacker forwarding false
par NetworkTopology.isp_private0.private.attacker multicastForwarding false
par NetworkTopology.isp_private0.private.attacker hasUdp true
par NetworkTopology.isp_private0.private.attacker hasTcp true
par NetworkTopology.isp_private0.private.attacker hasSctp false
par NetworkTopology.isp_private0.private.attacker numApps 5
par NetworkTopology.isp_private0.private typename "\"PrivateLan\""
par NetworkTopology.isp_private0.private numHosts 5
par NetworkTopology.isp_private0 typename "\"IspZone\""
par NetworkTopology.isp_private0 zoneType "\"private\""
par NetworkTopology.isp_private0 numHosts 5
par NetworkTopology typename "\"NetworkTopology\""
par NetworkTopology numHostsPerLan 5

